/*---------------------------------------------------------------------------*\
| =========                 |                                                 |
| \\      /  F ield         | foam-extend: Open Source CFD                    |
|  \\    /   O peration     | Version:     4.1                                |
|   \\  /    A nd           | Web:         http://www.foam-extend.org         |
|    \\/     M anipulation  | For copyright notice see file Copyright         |
\*---------------------------------------------------------------------------*/
Build  : 4.1-76ec96ae2dcb
Exec   : checkMesh
Date   : Mar 23 2020
Time   : 21:45:22
Host   : "aoba"
PID    : 16234
CtrlDict : "/home/mimi/foam/mimi-4.1/run/cylinder-blockmesh/grids/system/controlDict"
Case   : /home/mimi/foam/mimi-4.1/run/cylinder-blockmesh/grids
nProcs : 1
sigFpe : Enabling floating point exception trapping (FOAM_SIGFPE).
allowSystemOperations : Disallowing user-supplied system call operations

// * * * * * * * * * * * * * * * * * * * * * * * * * * * * * * * * * * * * * //
Create time

