/*---------------------------------------------------------------------------*\
| =========                 |                                                 |
| \\      /  F ield         | OpenFOAM: The Open Source CFD Toolbox           |
|  \\    /   O peration     | Version:  v1906                                 |
|   \\  /    A nd           | Web:      www.OpenFOAM.com                      |
|    \\/     M anipulation  |                                                 |
\*---------------------------------------------------------------------------*/
Build  : v1906 OPENFOAM=1906
Arch   : "LSB;label=32;scalar=64"
Exec   : checkMesh
Date   : Mar 10 2020
Time   : 20:54:13
Host   : aoba
PID    : 24414
I/O    : uncollated
Case   : /home/mimi/foam/mimi-4.1/run/aerofoil-gmsh-overset/grids/background
nProcs : 1
trapFpe: Floating point exception trapping enabled (FOAM_SIGFPE).
fileModificationChecking : Monitoring run-time modified files using timeStampMaster (fileModificationSkew 10)
allowSystemOperations : Allowing user-supplied system call operations

// * * * * * * * * * * * * * * * * * * * * * * * * * * * * * * * * * * * * * //
Create time

--> FOAM Warning : 
    From function void* Foam::dlOpen(const Foam::fileName&, bool)
    in file POSIX.C at line 1697
    dlopen error : libfoam.so: cannot open shared object file: No such file or directory
--> FOAM Warning : 
    From function bool Foam::dlLibraryTable::open(const Foam::fileName&, bool)
    in file db/dynamicLibrary/dlLibraryTable/dlLibraryTable.C at line 113
    could not load "libfoam.so"
--> FOAM Warning : 
    From function void* Foam::dlOpen(const Foam::fileName&, bool)
    in file POSIX.C at line 1697
    dlopen error : liboversetMesh.so: cannot open shared object file: No such file or directory
--> FOAM Warning : 
    From function bool Foam::dlLibraryTable::open(const Foam::fileName&, bool)
    in file db/dynamicLibrary/dlLibraryTable/dlLibraryTable.C at line 113
    could not load "liboversetMesh.so"
--> FOAM Warning : 
    From function void* Foam::dlOpen(const Foam::fileName&, bool)
    in file POSIX.C at line 1697
    dlopen error : liblduSolvers.so: cannot open shared object file: No such file or directory
--> FOAM Warning : 
    From function bool Foam::dlLibraryTable::open(const Foam::fileName&, bool)
    in file db/dynamicLibrary/dlLibraryTable/dlLibraryTable.C at line 113
    could not load "liblduSolvers.so"
--> FOAM Warning : 
    From function static Foam::instantList Foam::timeSelector::select0(Foam::Time&, const Foam::argList&)
    in file db/Time/timeSelector.C at line 259
    No time specified or available, selecting 'constant'
Create mesh for time = constant

Time = constant

Mesh stats
    points:           1250
    internal points:  0
    faces:            2352
    internal faces:   1104
    cells:            576
    faces per cell:   6
    boundary patches: 6
    point zones:      0
    face zones:       0
    cell zones:       1

Overall number of cells of each type:
    hexahedra:     576
    prisms:        0
    wedges:        0
    pyramids:      0
    tet wedges:    0
    tetrahedra:    0
    polyhedra:     0

Checking topology...
    Boundary definition OK.
    Cell to face addressing OK.
    Point usage OK.
    Upper triangular ordering OK.
    Face vertices OK.
    Number of regions: 1 (OK).

Checking patch topology for multiply connected surfaces...
    Patch               Faces    Points   Surface topology                  
    back                576      625      ok (non-closed singly connected)  
    out                 24       50       ok (non-closed singly connected)  
    bottom              24       50       ok (non-closed singly connected)  
    in                  24       50       ok (non-closed singly connected)  
    top                 24       50       ok (non-closed singly connected)  
    front               576      625      ok (non-closed singly connected)  

Checking faceZone topology for multiply connected surfaces...
    No faceZones found.

Checking basic cellZone addressing...
    CellZone            Cells        Points       Volume       BoundingBox
    volume              576          1250         0.6          (-1 -1 0) (2 1 0.1)

Checking geometry...
    Overall domain bounding box (-1 -1 0) (2 1 0.1)
    Mesh has 3 geometric (non-empty/wedge) directions (1 1 1)
    Mesh has 3 solution (non-empty) directions (1 1 1)
    Boundary openness (-2.6688053e-18 2.9356859e-18 -1.0781974e-16) OK.
    Max cell openness = 1.0408341e-16 OK.
    Max aspect ratio = 1.5 OK.
    Minimum face area = 0.0083333333. Maximum face area = 0.0125.  Face area magnitudes OK.
    Min volume = 0.0010416667. Max volume = 0.0010416667.  Total volume = 0.6.  Cell volumes OK.
    Mesh non-orthogonality Max: 0 average: 0
    Non-orthogonality check OK.
    Face pyramids OK.
    Max skewness = 3.0349456e-11 OK.
    Coupled point location match (average 0) OK.

Mesh OK.

End

