/*---------------------------------------------------------------------------*\
| =========                 |                                                 |
| \\      /  F ield         | foam-extend: Open Source CFD                    |
|  \\    /   O peration     | Version:     4.1                                |
|   \\  /    A nd           | Web:         http://www.foam-extend.org         |
|    \\/     M anipulation  | For copyright notice see file Copyright         |
\*---------------------------------------------------------------------------*/
Build  : 4.1-76ec96ae2dcb
Exec   : icoFoam
Date   : Apr 07 2020
Time   : 17:25:30
Host   : "aoba"
PID    : 32459
CtrlDict : "/home/mimi/foam/mimi-4.1/run/owari/cylinder/single/gmsh/150ms/system/controlDict"
Case   : /home/mimi/foam/mimi-4.1/run/owari/cylinder/single/gmsh/150ms
nProcs : 1
sigFpe : Enabling floating point exception trapping (FOAM_SIGFPE).
allowSystemOperations : Disallowing user-supplied system call operations

// * * * * * * * * * * * * * * * * * * * * * * * * * * * * * * * * * * * * * //
Create time

Create mesh for time = 0


PISO: Operating solver in PISO mode

Reading transportProperties

Reading field p

Reading field U

--> FOAM Warning :
    From function Field<Type>::Field(const word& keyword, const dictionary&, const label)
    in file /home/mimi/foam/foam-extend-4.1/src/foam/lnInclude/Field.C at line 260
    Reading "/home/mimi/foam/mimi-4.1/run/owari/cylinder/single/gmsh/150ms/0/U::boundaryField::top" from line 38 to line 39
    expected keyword 'uniform' or 'nonuniform', assuming deprecated Field format from Foam version 2.0.
Reading/calculating face flux field phi


Starting time loop

--> FOAM Warning :
    From function findElements::findElements(const fvMesh&)
    in file probes/probes.C at line 111
    Did not find location (0.012 0 0) in any cell. Skipping location.
--> FOAM Warning :
    From function findElements::findElements(const fvMesh&)
    in file probes/probes.C at line 111
    Did not find location (0.05 0 0) in any cell. Skipping location.
Time = 0.0005

Courant Number mean: 2.1287629 max: 68.166225 velocity magnitude: 150
smoothSolver:  Solving for Ux, Initial residual = 1, Final residual = 6.9185903e-08, No Iterations 34
smoothSolver:  Solving for Uy, Initial residual = 0, Final residual = 0, No Iterations 1
amgSolver:  Solving for p, Initial residual = 1, Final residual = 8.4436734e-08, No Iterations 27
time step continuity errors : sum local = 1.1554823e-08, global = -2.4337645e-09, cumulative = -2.4337645e-09
amgSolver:  Solving for p, Initial residual = 0.49784705, Final residual = 6.1234676e-08, No Iterations 26
time step continuity errors : sum local = 1.6429685e-08, global = 3.4605341e-09, cumulative = 1.0267696e-09
amgSolver:  Solving for p, Initial residual = 0.38525806, Final residual = 6.4447301e-08, No Iterations 23
time step continuity errors : sum local = 5.3966351e-09, global = -1.136585e-09, cumulative = -1.0981539e-10
amgSolver:  Solving for p, Initial residual = 0.23499493, Final residual = 6.3720547e-08, No Iterations 20
time step continuity errors : sum local = 5.6633379e-09, global = 1.192722e-09, cumulative = 1.0829066e-09
ExecutionTime = 0.09 s  ClockTime = 0 s

forces output:
    forces(pressure, viscous)((2462.0835 0.10045497 4.6376362e-17) (113.45479 0.094020508 -3.0216042e-16))
    moment(pressure, viscous)((-0.0050227486 123.10417 2.8409918e-08) (-0.0047010254 5.6727395 -0.015932385))

forceCoeffs output:
    Cd = 5151.0765
    Cl = 0.38895096
    Cm = 0

Time = 0.001

Courant Number mean: 1.6066031 max: 140.67414 velocity magnitude: 3668.943
smoothSolver:  Solving for Ux, Initial residual = 0.42716628, Final residual = 6.0787371e-08, No Iterations 46
smoothSolver:  Solving for Uy, Initial residual = 0.48058786, Final residual = 7.3870961e-08, No Iterations 42
amgSolver:  Solving for p, Initial residual = 0.48385202, Final residual = 7.1961774e-08, No Iterations 28
time step continuity errors : sum local = 4.7073407e-09, global = 8.5110649e-10, cumulative = 1.9340131e-09
amgSolver:  Solving for p, Initial residual = 0.18590246, Final residual = 8.3999587e-08, No Iterations 26
time step continuity errors : sum local = 1.2377648e-08, global = -2.2379194e-09, cumulative = -3.0390634e-10
amgSolver:  Solving for p, Initial residual = 0.40593518, Final residual = 7.9972827e-08, No Iterations 26
time step continuity errors : sum local = 3.2539122e-09, global = 5.8832213e-10, cumulative = 2.844158e-10
amgSolver:  Solving for p, Initial residual = 0.28181455, Final residual = 7.1174349e-08, No Iterations 26
time step continuity errors : sum local = 3.0486515e-09, global = -5.5120986e-10, cumulative = -2.6679406e-10
ExecutionTime = 0.13 s  ClockTime = 1 s

forces output:
    forces(pressure, viscous)((804.41094 18.512344 -3.3324154e-16) (4.247539 0.053359949 1.293283e-16))
    moment(pressure, viscous)((-0.92561721 40.220547 -1.8411181e-10) (-0.0026679975 0.21237695 0.0019231689))

forceCoeffs output:
    Cd = 1617.317
    Cl = 37.131408
    Cm = 0

Time = 0.0015

Courant Number mean: 1.5549287 max: 71.230557 velocity magnitude: 312.85777
smoothSolver:  Solving for Ux, Initial residual = 0.1073842, Final residual = 7.5085345e-08, No Iterations 38
smoothSolver:  Solving for Uy, Initial residual = 0.21778666, Final residual = 6.4187209e-08, No Iterations 38
amgSolver:  Solving for p, Initial residual = 0.83465146, Final residual = 8.1894324e-08, No Iterations 26
time step continuity errors : sum local = 6.5548422e-09, global = 1.2646207e-09, cumulative = 9.9782661e-10
amgSolver:  Solving for p, Initial residual = 0.36595102, Final residual = 9.7461047e-08, No Iterations 25
time step continuity errors : sum local = 9.5353631e-09, global = -1.8396514e-09, cumulative = -8.418248e-10
amgSolver:  Solving for p, Initial residual = 0.49087984, Final residual = 9.0381792e-08, No Iterations 24
time step continuity errors : sum local = 2.1187183e-09, global = 4.087588e-10, cumulative = -4.33066e-10
amgSolver:  Solving for p, Initial residual = 0.26724174, Final residual = 6.0137049e-08, No Iterations 24
time step continuity errors : sum local = 1.2265979e-09, global = -2.3664557e-10, cumulative = -6.6971156e-10
ExecutionTime = 0.17 s  ClockTime = 1 s

forces output:
    forces(pressure, viscous)((288.0585 2.740475 -5.3857591e-16) (8.7863336 0.010664567 1.0453967e-16))
    moment(pressure, viscous)((-0.13702375 14.402925 -1.2641414e-09) (-0.00053322837 0.43931668 -0.0029796235))

forceCoeffs output:
    Cd = 593.68967
    Cl = 5.5022791
    Cm = 0

Time = 0.002

Courant Number mean: 1.5397309 max: 15.217805 velocity magnitude: 264.51819
smoothSolver:  Solving for Ux, Initial residual = 0.036582843, Final residual = 9.3916918e-08, No Iterations 34
smoothSolver:  Solving for Uy, Initial residual = 0.08630229, Final residual = 7.4225733e-08, No Iterations 35
amgSolver:  Solving for p, Initial residual = 0.35146287, Final residual = 7.5296897e-08, No Iterations 26
time step continuity errors : sum local = 1.4641497e-09, global = -2.8399518e-10, cumulative = -9.5370674e-10
amgSolver:  Solving for p, Initial residual = 0.31733234, Final residual = 8.1767329e-08, No Iterations 26
time step continuity errors : sum local = 1.2098971e-09, global = 2.3467797e-10, cumulative = -7.1902877e-10
amgSolver:  Solving for p, Initial residual = 0.10339563, Final residual = 6.5243512e-08, No Iterations 22
time step continuity errors : sum local = 9.3859687e-10, global = 1.8049854e-10, cumulative = -5.3853024e-10
amgSolver:  Solving for p, Initial residual = 0.062478625, Final residual = 6.8840888e-08, No Iterations 21
time step continuity errors : sum local = 9.7070516e-10, global = -1.8803283e-10, cumulative = -7.2656307e-10
ExecutionTime = 0.2 s  ClockTime = 1 s

forces output:
    forces(pressure, viscous)((262.26096 1.0227949 -4.2358873e-16) (7.768406 0.0098391355 1.3032691e-16))
    moment(pressure, viscous)((-0.051139747 13.113048 -4.1027294e-10) (-0.00049195678 0.3884203 -0.002016686))

forceCoeffs output:
    Cd = 540.05873
    Cl = 2.0652682
    Cm = 0

Time = 0.0025

Courant Number mean: 1.5371349 max: 15.344299 velocity magnitude: 252.90005
smoothSolver:  Solving for Ux, Initial residual = 0.020642282, Final residual = 6.7127195e-08, No Iterations 32
smoothSolver:  Solving for Uy, Initial residual = 0.036504839, Final residual = 8.009454e-08, No Iterations 33
amgSolver:  Solving for p, Initial residual = 0.15440278, Final residual = 6.9530346e-08, No Iterations 24
time step continuity errors : sum local = 1.0040089e-09, global = 2.0362034e-10, cumulative = -5.2294273e-10
amgSolver:  Solving for p, Initial residual = 0.092693065, Final residual = 7.1873516e-08, No Iterations 23
time step continuity errors : sum local = 1.0288227e-09, global = 2.0758825e-10, cumulative = -3.1535448e-10
amgSolver:  Solving for p, Initial residual = 0.043177353, Final residual = 8.6315229e-08, No Iterations 22
time step continuity errors : sum local = 1.2527616e-09, global = -2.5412749e-10, cumulative = -5.6948197e-10
amgSolver:  Solving for p, Initial residual = 0.033013191, Final residual = 6.6162669e-08, No Iterations 22
time step continuity errors : sum local = 9.1303094e-10, global = 1.852133e-10, cumulative = -3.8426867e-10
ExecutionTime = 0.24 s  ClockTime = 1 s

forces output:
    forces(pressure, viscous)((268.12921 0.32435613 -4.6829341e-16) (6.9798493 0.011524087 1.3814894e-16))
    moment(pressure, viscous)((-0.016217807 13.406461 7.7349892e-10) (-0.00057620435 0.34899246 -0.0010710921))

forceCoeffs output:
    Cd = 550.21813
    Cl = 0.67176043
    Cm = 0

Time = 0.003

Courant Number mean: 1.5371921 max: 15.339362 velocity magnitude: 259.08228
smoothSolver:  Solving for Ux, Initial residual = 0.015463724, Final residual = 9.6744183e-08, No Iterations 30
smoothSolver:  Solving for Uy, Initial residual = 0.025155333, Final residual = 9.9104526e-08, No Iterations 32
amgSolver:  Solving for p, Initial residual = 0.090995228, Final residual = 7.3568757e-08, No Iterations 24
time step continuity errors : sum local = 1.0760961e-09, global = -2.2028894e-10, cumulative = -6.0455761e-10
amgSolver:  Solving for p, Initial residual = 0.075300781, Final residual = 8.4482333e-08, No Iterations 24
time step continuity errors : sum local = 1.1093969e-09, global = 2.270961e-10, cumulative = -3.7746151e-10
amgSolver:  Solving for p, Initial residual = 0.042214161, Final residual = 5.987172e-08, No Iterations 23
time step continuity errors : sum local = 8.7874463e-10, global = -1.7987597e-10, cumulative = -5.5733747e-10
amgSolver:  Solving for p, Initial residual = 0.033998775, Final residual = 7.8210202e-08, No Iterations 22
time step continuity errors : sum local = 1.0829686e-09, global = 2.2167974e-10, cumulative = -3.3565773e-10
ExecutionTime = 0.28 s  ClockTime = 1 s

forces output:
    forces(pressure, viscous)((271.87464 -0.26219553 -4.5571018e-16) (6.3909373 0.01223013 1.4226793e-16))
    moment(pressure, viscous)((0.013109777 13.593732 9.0963165e-10) (-0.00061150652 0.31954686 -0.00039882213))

forceCoeffs output:
    Cd = 556.53115
    Cl = -0.4999308
    Cm = 0

Time = 0.0035

Courant Number mean: 1.5373325 max: 15.29022 velocity magnitude: 259.29757
smoothSolver:  Solving for Ux, Initial residual = 0.013768245, Final residual = 6.9887995e-08, No Iterations 30
smoothSolver:  Solving for Uy, Initial residual = 0.02286214, Final residual = 8.5692533e-08, No Iterations 32
amgSolver:  Solving for p, Initial residual = 0.074189717, Final residual = 6.8655759e-08, No Iterations 24
time step continuity errors : sum local = 1.0116255e-09, global = -2.0688688e-10, cumulative = -5.4254461e-10
amgSolver:  Solving for p, Initial residual = 0.070790193, Final residual = 8.2213834e-08, No Iterations 24
time step continuity errors : sum local = 1.0935596e-09, global = 2.2365016e-10, cumulative = -3.1889446e-10
amgSolver:  Solving for p, Initial residual = 0.043335189, Final residual = 6.1196929e-08, No Iterations 23
time step continuity errors : sum local = 9.131229e-10, global = -1.8673648e-10, cumulative = -5.0563094e-10
amgSolver:  Solving for p, Initial residual = 0.035202704, Final residual = 8.0499601e-08, No Iterations 22
time step continuity errors : sum local = 1.1276903e-09, global = 2.3059332e-10, cumulative = -2.7503762e-10
ExecutionTime = 0.32 s  ClockTime = 1 s

forces output:
    forces(pressure, viscous)((277.444 -0.39853218 -4.4836343e-16) (5.9584525 0.012372927 1.4271015e-16))
    moment(pressure, viscous)((0.019926609 13.8722 7.1431352e-10) (-0.00061864633 0.29792262 2.8620299e-05))

forceCoeffs output:
    Cd = 566.80491
    Cl = -0.77231851
    Cm = 0

Time = 0.004

Courant Number mean: 1.5378883 max: 15.281571 velocity magnitude: 257.79288
smoothSolver:  Solving for Ux, Initial residual = 0.012828878, Final residual = 9.7804862e-08, No Iterations 28
smoothSolver:  Solving for Uy, Initial residual = 0.021099314, Final residual = 9.9195704e-08, No Iterations 31
amgSolver:  Solving for p, Initial residual = 0.065999834, Final residual = 7.2296088e-08, No Iterations 24
time step continuity errors : sum local = 1.077225e-09, global = -2.1793917e-10, cumulative = -4.9297679e-10
amgSolver:  Solving for p, Initial residual = 0.067715677, Final residual = 8.745789e-08, No Iterations 24
time step continuity errors : sum local = 1.1697778e-09, global = 2.3667078e-10, cumulative = -2.5630601e-10
amgSolver:  Solving for p, Initial residual = 0.042690714, Final residual = 6.6761752e-08, No Iterations 23
time step continuity errors : sum local = 1.008201e-09, global = -2.0397667e-10, cumulative = -4.6028268e-10
amgSolver:  Solving for p, Initial residual = 0.035598423, Final residual = 9.2198093e-08, No Iterations 22
time step continuity errors : sum local = 1.3012315e-09, global = 2.6324994e-10, cumulative = -1.9703274e-10
ExecutionTime = 0.35 s  ClockTime = 1 s

forces output:
    forces(pressure, viscous)((281.09993 -2.0309856 -4.4477406e-16) (5.6207274 0.0084536703 1.4361542e-16))
    moment(pressure, viscous)((0.10154928 14.054997 4.30599e-10) (-0.00042268351 0.28103637 1.2901334e-05))

forceCoeffs output:
    Cd = 573.44132
    Cl = -4.0450638
    Cm = 0

Time = 0.0045

Courant Number mean: 1.5385776 max: 15.264483 velocity magnitude: 256.02094
smoothSolver:  Solving for Ux, Initial residual = 0.01218941, Final residual = 8.6219926e-08, No Iterations 27
smoothSolver:  Solving for Uy, Initial residual = 0.019542979, Final residual = 7.5293652e-08, No Iterations 31
amgSolver:  Solving for p, Initial residual = 0.065711402, Final residual = 8.2537435e-08, No Iterations 24
time step continuity errors : sum local = 1.2473974e-09, global = -2.6077029e-10, cumulative = -4.5780303e-10
amgSolver:  Solving for p, Initial residual = 0.066010649, Final residual = 9.2365065e-08, No Iterations 24
time step continuity errors : sum local = 1.23859e-09, global = 2.5892604e-10, cumulative = -1.9887699e-10
amgSolver:  Solving for p, Initial residual = 0.038958226, Final residual = 8.706781e-08, No Iterations 22
time step continuity errors : sum local = 1.3136703e-09, global = -2.7462789e-10, cumulative = -4.7350487e-10
amgSolver:  Solving for p, Initial residual = 0.02908022, Final residual = 6.1236657e-08, No Iterations 22
time step continuity errors : sum local = 8.7617985e-10, global = 1.8316558e-10, cumulative = -2.9033929e-10
ExecutionTime = 0.39 s  ClockTime = 1 s

forces output:
    forces(pressure, viscous)((289.923 -1.322322 -4.3423552e-16) (5.3648966 0.0060328971 1.4178705e-16))
    moment(pressure, viscous)((0.066116102 14.49615 2.5622157e-10) (-0.00030164485 0.26824483 1.9662001e-06))

forceCoeffs output:
    Cd = 590.5758
    Cl = -2.6325783
    Cm = 0

Time = 0.005

Courant Number mean: 1.5387853 max: 15.215127 velocity magnitude: 254.35833
smoothSolver:  Solving for Ux, Initial residual = 0.011833603, Final residual = 7.5263819e-08, No Iterations 27
smoothSolver:  Solving for Uy, Initial residual = 0.017086922, Final residual = 8.7497823e-08, No Iterations 30
amgSolver:  Solving for p, Initial residual = 0.056041007, Final residual = 8.9751238e-08, No Iterations 23
time step continuity errors : sum local = 1.3509087e-09, global = -2.7930793e-10, cumulative = -5.6964722e-10
amgSolver:  Solving for p, Initial residual = 0.050183363, Final residual = 5.9623934e-08, No Iterations 24
time step continuity errors : sum local = 8.3805619e-10, global = 1.7336374e-10, cumulative = -3.9628348e-10
amgSolver:  Solving for p, Initial residual = 0.032037473, Final residual = 7.1824259e-08, No Iterations 22
time step continuity errors : sum local = 1.093432e-09, global = -2.2618289e-10, cumulative = -6.2246637e-10
amgSolver:  Solving for p, Initial residual = 0.024879517, Final residual = 9.9176941e-08, No Iterations 21
time step continuity errors : sum local = 1.4436968e-09, global = 2.9858638e-10, cumulative = -3.2387999e-10
ExecutionTime = 0.43 s  ClockTime = 1 s

forces output:
    forces(pressure, viscous)((295.45575 -1.7399404 -4.4066872e-16) (5.2107198 0.0040123923 1.442209e-16))
    moment(pressure, viscous)((0.086997018 14.772787 3.3067576e-12) (-0.00020061962 0.26053599 0.00020631365))

forceCoeffs output:
    Cd = 601.33293
    Cl = -3.4718559
    Cm = 0

Time = 0.0055

Courant Number mean: 1.5393591 max: 15.157132 velocity magnitude: 252.77218
smoothSolver:  Solving for Ux, Initial residual = 0.011355502, Final residual = 8.2593352e-08, No Iterations 26
smoothSolver:  Solving for Uy, Initial residual = 0.015529521, Final residual = 6.7481448e-08, No Iterations 30
amgSolver:  Solving for p, Initial residual = 0.055563104, Final residual = 6.6707538e-08, No Iterations 24
time step continuity errors : sum local = 1.0210341e-09, global = -1.9820813e-10, cumulative = -5.2208812e-10
amgSolver:  Solving for p, Initial residual = 0.047890752, Final residual = 6.8878923e-08, No Iterations 24
time step continuity errors : sum local = 9.7281561e-10, global = 1.888466e-10, cumulative = -3.3324152e-10
amgSolver:  Solving for p, Initial residual = 0.028822029, Final residual = 6.0845089e-08, No Iterations 22
time step continuity errors : sum local = 9.3141439e-10, global = -1.8081552e-10, cumulative = -5.1405703e-10
amgSolver:  Solving for p, Initial residual = 0.020213031, Final residual = 7.397213e-08, No Iterations 21
time step continuity errors : sum local = 1.0936378e-09, global = 2.1230146e-10, cumulative = -3.0175558e-10
ExecutionTime = 0.46 s  ClockTime = 1 s

forces output:
    forces(pressure, viscous)((303.74636 -3.0285494 -4.3944562e-16) (5.0782645 0.0013479772 1.4580651e-16))
    moment(pressure, viscous)((0.15142747 15.187318 -1.01086e-10) (-6.7398862e-05 0.25391322 0.00010461652))

forceCoeffs output:
    Cd = 617.64925
    Cl = -6.0544028
    Cm = 0

Time = 0.006

Courant Number mean: 1.5393571 max: 15.075122 velocity magnitude: 251.24539
smoothSolver:  Solving for Ux, Initial residual = 0.011207765, Final residual = 7.1708341e-08, No Iterations 27
smoothSolver:  Solving for Uy, Initial residual = 0.014454292, Final residual = 6.5795395e-08, No Iterations 30
amgSolver:  Solving for p, Initial residual = 0.047953408, Final residual = 7.1628991e-08, No Iterations 23
time step continuity errors : sum local = 1.0935859e-09, global = -2.241647e-10, cumulative = -5.2592028e-10
amgSolver:  Solving for p, Initial residual = 0.035874127, Final residual = 7.3803769e-08, No Iterations 23
time step continuity errors : sum local = 1.0775121e-09, global = 2.2115561e-10, cumulative = -3.0476466e-10
amgSolver:  Solving for p, Initial residual = 0.02231458, Final residual = 6.8850003e-08, No Iterations 21
time step continuity errors : sum local = 1.0535076e-09, global = -2.162648e-10, cumulative = -5.2102946e-10
amgSolver:  Solving for p, Initial residual = 0.016007189, Final residual = 9.4940782e-08, No Iterations 20
time step continuity errors : sum local = 1.417268e-09, global = 2.9088973e-10, cumulative = -2.3013973e-10
ExecutionTime = 0.49 s  ClockTime = 1 s

forces output:
    forces(pressure, viscous)((310.52059 -1.777483 -4.4821171e-16) (5.0213699 -0.0008541638 1.4839551e-16))
    moment(pressure, viscous)((0.088874148 15.52603 -1.5619102e-10) (4.270819e-05 0.25106849 -0.00067134981))

forceCoeffs output:
    Cd = 631.08392
    Cl = -3.5566743
    Cm = 0

Time = 0.0065

Courant Number mean: 1.5394334 max: 14.979295 velocity magnitude: 249.76728
smoothSolver:  Solving for Ux, Initial residual = 0.010875894, Final residual = 7.5041206e-08, No Iterations 27
smoothSolver:  Solving for Uy, Initial residual = 0.013510497, Final residual = 8.1288134e-08, No Iterations 29
amgSolver:  Solving for p, Initial residual = 0.051137547, Final residual = 7.9343835e-08, No Iterations 23
time step continuity errors : sum local = 1.2204281e-09, global = -2.3890441e-10, cumulative = -4.6904414e-10
amgSolver:  Solving for p, Initial residual = 0.038006702, Final residual = 8.3741201e-08, No Iterations 23
time step continuity errors : sum local = 1.2270943e-09, global = 2.4029813e-10, cumulative = -2.2874601e-10
amgSolver:  Solving for p, Initial residual = 0.023710193, Final residual = 8.124154e-08, No Iterations 21
time step continuity errors : sum local = 1.2570309e-09, global = -2.4616273e-10, cumulative = -4.7490874e-10
amgSolver:  Solving for p, Initial residual = 0.017154052, Final residual = 6.5221738e-08, No Iterations 21
time step continuity errors : sum local = 9.8040735e-10, global = 1.9199132e-10, cumulative = -2.8291743e-10
ExecutionTime = 0.53 s  ClockTime = 1 s

forces output:
    forces(pressure, viscous)((316.19019 -0.93673202 -4.5425579e-16) (4.9538764 0.0043801429 1.5286758e-16))
    moment(pressure, viscous)((0.046836601 15.809509 -1.9648309e-10) (-0.00021900715 0.24769382 0.00020322072))

forceCoeffs output:
    Cd = 642.28812
    Cl = -1.8647038
    Cm = 0

Time = 0.007

Courant Number mean: 1.5395164 max: 14.882589 velocity magnitude: 248.28005
smoothSolver:  Solving for Ux, Initial residual = 0.010648247, Final residual = 7.8652925e-08, No Iterations 27
smoothSolver:  Solving for Uy, Initial residual = 0.013053325, Final residual = 7.5354567e-08, No Iterations 29
amgSolver:  Solving for p, Initial residual = 0.050733707, Final residual = 8.4103345e-08, No Iterations 23
time step continuity errors : sum local = 1.3131469e-09, global = -2.7381899e-10, cumulative = -5.5673641e-10
amgSolver:  Solving for p, Initial residual = 0.040643117, Final residual = 8.7120831e-08, No Iterations 23
time step continuity errors : sum local = 1.294041e-09, global = 2.7000287e-10, cumulative = -2.8673354e-10
amgSolver:  Solving for p, Initial residual = 0.025793769, Final residual = 8.8086045e-08, No Iterations 21
time step continuity errors : sum local = 1.3913864e-09, global = -2.9031828e-10, cumulative = -5.7705182e-10
amgSolver:  Solving for p, Initial residual = 0.018943647, Final residual = 7.0311467e-08, No Iterations 21
time step continuity errors : sum local = 1.0744063e-09, global = 2.2417824e-10, cumulative = -3.5287358e-10
ExecutionTime = 0.56 s  ClockTime = 1 s

forces output:
    forces(pressure, viscous)((320.72164 -0.38591076 -4.5814964e-16) (4.8974271 0.0075398878 1.5602729e-16))
    moment(pressure, viscous)((0.019295538 16.036082 -1.313009e-10) (-0.00037699439 0.24487135 0.00057504679))

forceCoeffs output:
    Cd = 651.23813
    Cl = -0.75674175
    Cm = 0

Time = 0.0075

Courant Number mean: 1.5396467 max: 14.768484 velocity magnitude: 246.7965
smoothSolver:  Solving for Ux, Initial residual = 0.01041845, Final residual = 8.0515639e-08, No Iterations 27
smoothSolver:  Solving for Uy, Initial residual = 0.012740138, Final residual = 7.5963773e-08, No Iterations 29
amgSolver:  Solving for p, Initial residual = 0.051328942, Final residual = 9.2788987e-08, No Iterations 23
time step continuity errors : sum local = 1.4695432e-09, global = -2.7709769e-10, cumulative = -6.2997127e-10
amgSolver:  Solving for p, Initial residual = 0.039546284, Final residual = 9.1536491e-08, No Iterations 23
time step continuity errors : sum local = 1.368232e-09, global = 2.5803198e-10, cumulative = -3.7193929e-10
amgSolver:  Solving for p, Initial residual = 0.024810921, Final residual = 8.2702147e-08, No Iterations 21
time step continuity errors : sum local = 1.3106996e-09, global = -2.4716982e-10, cumulative = -6.1910911e-10
amgSolver:  Solving for p, Initial residual = 0.017555449, Final residual = 6.1882694e-08, No Iterations 21
time step continuity errors : sum local = 9.5219917e-10, global = 1.7956412e-10, cumulative = -4.3954499e-10
ExecutionTime = 0.59 s  ClockTime = 1 s

forces output:
    forces(pressure, viscous)((325.78118 -0.11701091 -4.5736897e-16) (4.8587097 0.0084340768 1.5790616e-16))
    moment(pressure, viscous)((0.0058505453 16.289059 -9.053934e-11) (-0.00042170384 0.24293548 0.00054832692))

forceCoeffs output:
    Cd = 661.27979
    Cl = -0.21715366
    Cm = 0

Time = 0.008

Courant Number mean: 1.5392436 max: 14.606509 velocity magnitude: 245.35104
smoothSolver:  Solving for Ux, Initial residual = 0.010264355, Final residual = 8.6362411e-08, No Iterations 27
smoothSolver:  Solving for Uy, Initial residual = 0.012479093, Final residual = 7.6186627e-08, No Iterations 29
amgSolver:  Solving for p, Initial residual = 0.04825551, Final residual = 8.1405004e-08, No Iterations 23
time step continuity errors : sum local = 1.295741e-09, global = -2.6088605e-10, cumulative = -7.0043104e-10
amgSolver:  Solving for p, Initial residual = 0.036544123, Final residual = 7.9366902e-08, No Iterations 23
time step continuity errors : sum local = 1.2104676e-09, global = 2.4395149e-10, cumulative = -4.5647955e-10
amgSolver:  Solving for p, Initial residual = 0.022204535, Final residual = 6.9987797e-08, No Iterations 21
time step continuity errors : sum local = 1.1197209e-09, global = -2.2567879e-10, cumulative = -6.8215835e-10
amgSolver:  Solving for p, Initial residual = 0.015549604, Final residual = 8.8927831e-08, No Iterations 20
time step continuity errors : sum local = 1.3873934e-09, global = 2.7956457e-10, cumulative = -4.0259378e-10
ExecutionTime = 0.64 s  ClockTime = 1 s

forces output:
    forces(pressure, viscous)((328.57295 -0.24693325 -4.5364084e-16) (4.8363191 0.0051528658 1.5848296e-16))
    moment(pressure, viscous)((0.012346662 16.428648 -6.6589442e-11) (-0.00025764329 0.24181595 1.4025258e-05))

forceCoeffs output:
    Cd = 666.81854
    Cl = -0.48356076
    Cm = 0

Time = 0.0085

Courant Number mean: 1.5389224 max: 14.418082 velocity magnitude: 243.9868
smoothSolver:  Solving for Ux, Initial residual = 0.0099634402, Final residual = 8.3733395e-08, No Iterations 27
smoothSolver:  Solving for Uy, Initial residual = 0.012243143, Final residual = 7.3511566e-08, No Iterations 29
amgSolver:  Solving for p, Initial residual = 0.049260005, Final residual = 7.470089e-08, No Iterations 23
time step continuity errors : sum local = 1.2035104e-09, global = -2.2802137e-10, cumulative = -6.3061514e-10
amgSolver:  Solving for p, Initial residual = 0.035409616, Final residual = 7.3507686e-08, No Iterations 23
time step continuity errors : sum local = 1.147673e-09, global = 2.1750493e-10, cumulative = -4.1311021e-10
amgSolver:  Solving for p, Initial residual = 0.020881247, Final residual = 6.3986565e-08, No Iterations 21
time step continuity errors : sum local = 1.0441122e-09, global = -1.9787432e-10, cumulative = -6.1098453e-10
amgSolver:  Solving for p, Initial residual = 0.014141523, Final residual = 7.7902998e-08, No Iterations 20
time step continuity errors : sum local = 1.2426898e-09, global = 2.3549945e-10, cumulative = -3.7548508e-10
ExecutionTime = 0.68 s  ClockTime = 1 s

forces output:
    forces(pressure, viscous)((329.80277 -1.0454442 -4.4662411e-16) (4.8155734 -0.0032072307 1.5801406e-16))
    moment(pressure, viscous)((0.052272209 16.490139 -6.2405511e-11) (0.00016036154 0.24077867 -0.00083346859))

forceCoeffs output:
    Cd = 669.23669
    Cl = -2.0973028
    Cm = 0

Time = 0.009

Courant Number mean: 1.5388125 max: 14.219351 velocity magnitude: 242.72218
smoothSolver:  Solving for Ux, Initial residual = 0.0096410089, Final residual = 7.929789e-08, No Iterations 27
smoothSolver:  Solving for Uy, Initial residual = 0.011964917, Final residual = 7.3754441e-08, No Iterations 29
amgSolver:  Solving for p, Initial residual = 0.041616963, Final residual = 9.3555287e-08, No Iterations 22
time step continuity errors : sum local = 1.5328706e-09, global = -2.8088881e-10, cumulative = -6.5637389e-10
amgSolver:  Solving for p, Initial residual = 0.027977204, Final residual = 9.7410901e-08, No Iterations 22
time step continuity errors : sum local = 1.5678033e-09, global = 3.0120668e-10, cumulative = -3.5516721e-10
amgSolver:  Solving for p, Initial residual = 0.015715802, Final residual = 6.2667981e-08, No Iterations 20
time step continuity errors : sum local = 1.0331377e-09, global = -1.9859788e-10, cumulative = -5.5376509e-10
amgSolver:  Solving for p, Initial residual = 0.0099090739, Final residual = 7.6543997e-08, No Iterations 19
time step continuity errors : sum local = 1.2459764e-09, global = 2.3944391e-10, cumulative = -3.1432119e-10
ExecutionTime = 0.71 s  ClockTime = 1 s

forces output:
    forces(pressure, viscous)((330.02028 -1.9260732 -4.3980106e-16) (4.7956321 -0.014739529 1.5619259e-16))
    moment(pressure, viscous)((0.096303662 16.501014 -2.8402128e-11) (0.00073697647 0.2397816 -0.0017002077))

forceCoeffs output:
    Cd = 669.63183
    Cl = -3.8816255
    Cm = 0

Time = 0.0095

Courant Number mean: 1.5385496 max: 13.975019 velocity magnitude: 241.60255
smoothSolver:  Solving for Ux, Initial residual = 0.0092482161, Final residual = 7.4818234e-08, No Iterations 27
smoothSolver:  Solving for Uy, Initial residual = 0.01140492, Final residual = 6.8907537e-08, No Iterations 29
amgSolver:  Solving for p, Initial residual = 0.040208469, Final residual = 7.1938711e-08, No Iterations 23
time step continuity errors : sum local = 1.1913372e-09, global = 2.3473629e-10, cumulative = -7.9584893e-11
amgSolver:  Solving for p, Initial residual = 0.022416115, Final residual = 7.8053068e-08, No Iterations 22
time step continuity errors : sum local = 1.2873116e-09, global = -2.5438142e-10, cumulative = -3.3396632e-10
amgSolver:  Solving for p, Initial residual = 0.01137409, Final residual = 9.4650589e-08, No Iterations 18
time step continuity errors : sum local = 1.5721014e-09, global = -3.0954716e-10, cumulative = -6.4351347e-10
amgSolver:  Solving for p, Initial residual = 0.0068656286, Final residual = 8.2169031e-08, No Iterations 18
time step continuity errors : sum local = 1.358326e-09, global = 2.6737553e-10, cumulative = -3.7613794e-10
ExecutionTime = 0.74 s  ClockTime = 1 s

forces output:
    forces(pressure, viscous)((328.36458 -3.4604071 -4.3324136e-16) (4.7696765 -0.029022872 1.529738e-16))
    moment(pressure, viscous)((0.17302036 16.418229 -2.3843233e-11) (0.0014511436 0.23848383 -0.0025390456))

forceCoeffs output:
    Cd = 666.26851
    Cl = -6.97886
    Cm = 0

Time = 0.01

Courant Number mean: 1.5380405 max: 13.72343 velocity magnitude: 240.618
smoothSolver:  Solving for Ux, Initial residual = 0.0088022794, Final residual = 9.0119873e-08, No Iterations 26
smoothSolver:  Solving for Uy, Initial residual = 0.010752992, Final residual = 9.4894665e-08, No Iterations 28
amgSolver:  Solving for p, Initial residual = 0.038252208, Final residual = 6.7011348e-08, No Iterations 23
time step continuity errors : sum local = 1.120693e-09, global = 2.2983624e-10, cumulative = -1.463017e-10
amgSolver:  Solving for p, Initial residual = 0.019572318, Final residual = 7.6700366e-08, No Iterations 22
time step continuity errors : sum local = 1.2835008e-09, global = -2.6328415e-10, cumulative = -4.0958585e-10
amgSolver:  Solving for p, Initial residual = 0.0087791442, Final residual = 6.9346643e-08, No Iterations 17
time step continuity errors : sum local = 1.1613739e-09, global = -2.4021948e-10, cumulative = -6.4980534e-10
amgSolver:  Solving for p, Initial residual = 0.0051310101, Final residual = 7.8410349e-08, No Iterations 17
time step continuity errors : sum local = 1.3133839e-09, global = 2.6908923e-10, cumulative = -3.8071611e-10
ExecutionTime = 0.77 s  ClockTime = 1 s

forces output:
    forces(pressure, viscous)((326.03608 -5.2362285 -4.2659283e-16) (4.7379599 -0.044352473 1.4996508e-16))
    moment(pressure, viscous)((0.26181142 16.301804 -3.3275396e-11) (0.0022176237 0.236898 -0.0031688535))

forceCoeffs output:
    Cd = 661.54807
    Cl = -10.561162
    Cm = 0

Time = 0.0105

Courant Number mean: 1.5372413 max: 13.627187 velocity magnitude: 239.74773
smoothSolver:  Solving for Ux, Initial residual = 0.0083891093, Final residual = 7.8813972e-08, No Iterations 26
smoothSolver:  Solving for Uy, Initial residual = 0.010297716, Final residual = 8.9549896e-08, No Iterations 28
amgSolver:  Solving for p, Initial residual = 0.032708508, Final residual = 6.449398e-08, No Iterations 23
time step continuity errors : sum local = 1.0904056e-09, global = 2.3321057e-10, cumulative = -1.4750554e-10
amgSolver:  Solving for p, Initial residual = 0.018005469, Final residual = 7.2597804e-08, No Iterations 22
time step continuity errors : sum local = 1.2353603e-09, global = -2.6423489e-10, cumulative = -4.1174043e-10
amgSolver:  Solving for p, Initial residual = 0.0074062917, Final residual = 7.3933601e-08, No Iterations 17
time step continuity errors : sum local = 1.2536181e-09, global = 2.6629932e-10, cumulative = -1.4544111e-10
amgSolver:  Solving for p, Initial residual = 0.0041951481, Final residual = 8.296889e-08, No Iterations 16
time step continuity errors : sum local = 1.4106962e-09, global = 3.1129483e-10, cumulative = 1.6585372e-10
ExecutionTime = 0.8 s  ClockTime = 1 s

forces output:
    forces(pressure, viscous)((323.54304 -7.1974687 -4.2134667e-16) (4.7051474 -0.060122603 1.4833899e-16))
    moment(pressure, viscous)((0.35987343 16.177152 -4.072212e-11) (0.0030061302 0.23525737 -0.0035329463))

forceCoeffs output:
    Cd = 656.49637
    Cl = -14.515183
    Cm = 0

Time = 0.011

Courant Number mean: 1.5361859 max: 13.615937 velocity magnitude: 238.97482
smoothSolver:  Solving for Ux, Initial residual = 0.0079839784, Final residual = 9.5280294e-08, No Iterations 25
smoothSolver:  Solving for Uy, Initial residual = 0.0099161873, Final residual = 8.6832582e-08, No Iterations 28
amgSolver:  Solving for p, Initial residual = 0.032799885, Final residual = 5.9433147e-08, No Iterations 23
time step continuity errors : sum local = 1.0198098e-09, global = 2.0021354e-10, cumulative = 3.6606726e-10
amgSolver:  Solving for p, Initial residual = 0.018150791, Final residual = 6.5550148e-08, No Iterations 22
time step continuity errors : sum local = 1.1352384e-09, global = -2.2286185e-10, cumulative = 1.4320541e-10
amgSolver:  Solving for p, Initial residual = 0.0071823094, Final residual = 8.7505901e-08, No Iterations 17
time step continuity errors : sum local = 1.5065137e-09, global = 2.9514911e-10, cumulative = 4.3835452e-10
amgSolver:  Solving for p, Initial residual = 0.0040877342, Final residual = 6.8713546e-08, No Iterations 16
time step continuity errors : sum local = 1.1880471e-09, global = -2.2968052e-10, cumulative = 2.08674e-10
ExecutionTime = 0.84 s  ClockTime = 1 s

forces output:
    forces(pressure, viscous)((321.12985 -9.1351524 -4.1731216e-16) (4.6717651 -0.075302955 1.4730793e-16))
    moment(pressure, viscous)((0.45675762 16.056492 -1.8143029e-11) (0.0037651478 0.23358826 -0.0036190431))

forceCoeffs output:
    Cd = 651.60323
    Cl = -18.420911
    Cm = 0

Time = 0.0115

Courant Number mean: 1.5349972 max: 13.606552 velocity magnitude: 238.27341
smoothSolver:  Solving for Ux, Initial residual = 0.007548053, Final residual = 8.3687393e-08, No Iterations 25
smoothSolver:  Solving for Uy, Initial residual = 0.009579414, Final residual = 8.5588798e-08, No Iterations 28
amgSolver:  Solving for p, Initial residual = 0.033360583, Final residual = 9.2088167e-08, No Iterations 22
time step continuity errors : sum local = 1.6011124e-09, global = 3.2687421e-10, cumulative = 5.3554821e-10
amgSolver:  Solving for p, Initial residual = 0.018040466, Final residual = 6.0295825e-08, No Iterations 22
time step continuity errors : sum local = 1.0564664e-09, global = -2.156648e-10, cumulative = 3.1988341e-10
amgSolver:  Solving for p, Initial residual = 0.0068134481, Final residual = 8.4351173e-08, No Iterations 17
time step continuity errors : sum local = 1.4698213e-09, global = 2.9969189e-10, cumulative = 6.195753e-10
amgSolver:  Solving for p, Initial residual = 0.0039146254, Final residual = 6.8637021e-08, No Iterations 16
time step continuity errors : sum local = 1.2009529e-09, global = -2.4096808e-10, cumulative = 3.7860722e-10
ExecutionTime = 0.87 s  ClockTime = 1 s

forces output:
    forces(pressure, viscous)((318.96263 -11.033187 -4.1431644e-16) (4.6408485 -0.089778079 1.4666827e-16))
    moment(pressure, viscous)((0.55165933 15.948131 2.1422572e-11) (0.004488904 0.23204243 -0.0035565362))

forceCoeffs output:
    Cd = 647.20695
    Cl = -22.245929
    Cm = 0

Time = 0.012

Courant Number mean: 1.533698 max: 13.598571 velocity magnitude: 237.62826
smoothSolver:  Solving for Ux, Initial residual = 0.0071948286, Final residual = 7.3845565e-08, No Iterations 25
smoothSolver:  Solving for Uy, Initial residual = 0.0092463643, Final residual = 8.4482146e-08, No Iterations 28
amgSolver:  Solving for p, Initial residual = 0.031762423, Final residual = 9.7359088e-08, No Iterations 22
time step continuity errors : sum local = 1.7109007e-09, global = 3.7841639e-10, cumulative = 7.5702361e-10
amgSolver:  Solving for p, Initial residual = 0.017495858, Final residual = 6.3684788e-08, No Iterations 22
time step continuity errors : sum local = 1.12534e-09, global = -2.4888561e-10, cumulative = 5.08138e-10
amgSolver:  Solving for p, Initial residual = 0.0064773207, Final residual = 8.0172596e-08, No Iterations 17
time step continuity errors : sum local = 1.4099991e-09, global = 3.113629e-10, cumulative = 8.1950091e-10
amgSolver:  Solving for p, Initial residual = 0.0036795494, Final residual = 6.7629171e-08, No Iterations 16
time step continuity errors : sum local = 1.1938298e-09, global = -2.5027636e-10, cumulative = 5.6922455e-10
ExecutionTime = 0.9 s  ClockTime = 1 s

forces output:
    forces(pressure, viscous)((317.0369 -12.549704 -4.1224066e-16) (4.6136554 -0.10197631 1.4626935e-16))
    moment(pressure, viscous)((0.62748519 15.851845 6.6165351e-11) (0.0050988155 0.23068277 -0.0033808732))

forceCoeffs output:
    Cd = 643.30112
    Cl = -25.30336
    Cm = 0

Time = 0.0125

Courant Number mean: 1.532357 max: 13.59144 velocity magnitude: 237.02814
smoothSolver:  Solving for Ux, Initial residual = 0.0068447907, Final residual = 9.2339061e-08, No Iterations 24
smoothSolver:  Solving for Uy, Initial residual = 0.0089080138, Final residual = 8.0885072e-08, No Iterations 28
amgSolver:  Solving for p, Initial residual = 0.028433487, Final residual = 9.5009619e-08, No Iterations 22
time step continuity errors : sum local = 1.681891e-09, global = 3.4335925e-10, cumulative = 9.125838e-10
amgSolver:  Solving for p, Initial residual = 0.016558056, Final residual = 6.2214879e-08, No Iterations 22
time step continuity errors : sum local = 1.1058779e-09, global = -2.2571245e-10, cumulative = 6.8687134e-10
amgSolver:  Solving for p, Initial residual = 0.0063037955, Final residual = 8.9790567e-08, No Iterations 17
time step continuity errors : sum local = 1.5875395e-09, global = 3.2348281e-10, cumulative = 1.0103542e-09
amgSolver:  Solving for p, Initial residual = 0.0035078831, Final residual = 6.7918029e-08, No Iterations 16
time step continuity errors : sum local = 1.205719e-09, global = -2.3911123e-10, cumulative = 7.7124293e-10
ExecutionTime = 0.93 s  ClockTime = 1 s

forces output:
    forces(pressure, viscous)((315.12919 -13.405971 -4.1067937e-16) (4.5883494 -0.11038347 1.4598612e-16))
    moment(pressure, viscous)((0.67029854 15.756459 1.2448287e-10) (0.0055191733 0.22941747 -0.003040944))

forceCoeffs output:
    Cd = 639.43507
    Cl = -27.032708
    Cm = 0

Time = 0.013

Courant Number mean: 1.5309426 max: 13.584745 velocity magnitude: 236.46798
smoothSolver:  Solving for Ux, Initial residual = 0.0064717128, Final residual = 8.4277958e-08, No Iterations 24
smoothSolver:  Solving for Uy, Initial residual = 0.0085712619, Final residual = 7.3541236e-08, No Iterations 28
amgSolver:  Solving for p, Initial residual = 0.027628023, Final residual = 8.2395819e-08, No Iterations 22
time step continuity errors : sum local = 1.4667817e-09, global = 3.1404951e-10, cumulative = 1.0852924e-09
amgSolver:  Solving for p, Initial residual = 0.015476345, Final residual = 9.1125146e-08, No Iterations 21
time step continuity errors : sum local = 1.6268003e-09, global = -3.4830185e-10, cumulative = 7.3699059e-10
amgSolver:  Solving for p, Initial residual = 0.0059749623, Final residual = 9.4842359e-08, No Iterations 17
time step continuity errors : sum local = 1.6857765e-09, global = 3.6065454e-10, cumulative = 1.0976451e-09
amgSolver:  Solving for p, Initial residual = 0.0032614017, Final residual = 6.2795756e-08, No Iterations 16
time step continuity errors : sum local = 1.1205466e-09, global = -2.3555773e-10, cumulative = 8.620874e-10
ExecutionTime = 0.96 s  ClockTime = 1 s

forces output:
    forces(pressure, viscous)((313.15597 -13.420021 -4.0906664e-16) (4.5629309 -0.11375913 1.4574843e-16))
    moment(pressure, viscous)((0.67100106 15.657799 1.8816276e-10) (0.0056879567 0.22814655 -0.0025353966))

forceCoeffs output:
    Cd = 635.43781
    Cl = -27.067561
    Cm = 0

Time = 0.0135

Courant Number mean: 1.5295696 max: 13.577881 velocity magnitude: 236.10176
smoothSolver:  Solving for Ux, Initial residual = 0.0061062605, Final residual = 7.839084e-08, No Iterations 24
smoothSolver:  Solving for Uy, Initial residual = 0.0082635882, Final residual = 8.9165026e-08, No Iterations 27
amgSolver:  Solving for p, Initial residual = 0.027428655, Final residual = 7.8036675e-08, No Iterations 22
time step continuity errors : sum local = 1.3932314e-09, global = 2.935563e-10, cumulative = 1.1556437e-09
amgSolver:  Solving for p, Initial residual = 0.01397042, Final residual = 8.6259775e-08, No Iterations 21
time step continuity errors : sum local = 1.5407909e-09, global = -3.2461999e-10, cumulative = 8.3102371e-10
amgSolver:  Solving for p, Initial residual = 0.0055800618, Final residual = 8.2308378e-08, No Iterations 17
time step continuity errors : sum local = 1.4632423e-09, global = 3.0775092e-10, cumulative = 1.1387746e-09
amgSolver:  Solving for p, Initial residual = 0.0030493969, Final residual = 9.310796e-08, No Iterations 15
time step continuity errors : sum local = 1.6608675e-09, global = -3.3684884e-10, cumulative = 8.0192579e-10
ExecutionTime = 1 s  ClockTime = 1 s

forces output:
    forces(pressure, viscous)((311.48406 -12.884168 -4.0744666e-16) (4.5386521 -0.11264222 1.4522861e-16))
    moment(pressure, viscous)((0.6442084 15.574203 2.4559349e-10) (0.0056321108 0.22693261 -0.0020859847))

forceCoeffs output:
    Cd = 632.04543
    Cl = -25.99362
    Cm = 0

Time = 0.014

Courant Number mean: 1.5282421 max: 13.570422 velocity magnitude: 235.73807
smoothSolver:  Solving for Ux, Initial residual = 0.0057511373, Final residual = 7.3269833e-08, No Iterations 24
smoothSolver:  Solving for Uy, Initial residual = 0.0079748808, Final residual = 7.2237807e-08, No Iterations 27
amgSolver:  Solving for p, Initial residual = 0.026642611, Final residual = 7.904987e-08, No Iterations 22
time step continuity errors : sum local = 1.4108132e-09, global = 3.0753526e-10, cumulative = 1.109461e-09
amgSolver:  Solving for p, Initial residual = 0.013139349, Final residual = 8.6673829e-08, No Iterations 21
time step continuity errors : sum local = 1.5455708e-09, global = -3.3691285e-10, cumulative = 7.7254819e-10
amgSolver:  Solving for p, Initial residual = 0.0053384158, Final residual = 8.5607618e-08, No Iterations 17
time step continuity errors : sum local = 1.5221449e-09, global = 3.3153762e-10, cumulative = 1.1040858e-09
amgSolver:  Solving for p, Initial residual = 0.0029335153, Final residual = 9.3309532e-08, No Iterations 15
time step continuity errors : sum local = 1.6647639e-09, global = -3.516486e-10, cumulative = 7.5243721e-10
ExecutionTime = 1.03 s  ClockTime = 1 s

forces output:
    forces(pressure, viscous)((309.68641 -11.498523 -4.0501783e-16) (4.5145799 -0.10574254 1.4439298e-16))
    moment(pressure, viscous)((0.57492614 15.48432 2.9457625e-10) (0.0052871271 0.225729 -0.0016063321))

forceCoeffs output:
    Cd = 628.40197
    Cl = -23.208531
    Cm = 0

Time = 0.0145

Courant Number mean: 1.5270034 max: 13.561939 velocity magnitude: 235.35976
smoothSolver:  Solving for Ux, Initial residual = 0.0054493103, Final residual = 7.1144643e-08, No Iterations 24
smoothSolver:  Solving for Uy, Initial residual = 0.0078212338, Final residual = 7.7302137e-08, No Iterations 26
amgSolver:  Solving for p, Initial residual = 0.023760373, Final residual = 7.6610237e-08, No Iterations 22
time step continuity errors : sum local = 1.3685065e-09, global = 3.0058627e-10, cumulative = 1.0530235e-09
amgSolver:  Solving for p, Initial residual = 0.012090768, Final residual = 8.3383658e-08, No Iterations 21
time step continuity errors : sum local = 1.4912117e-09, global = -3.275343e-10, cumulative = 7.2548918e-10
amgSolver:  Solving for p, Initial residual = 0.0049750916, Final residual = 8.3153519e-08, No Iterations 17
time step continuity errors : sum local = 1.4822803e-09, global = 3.2519381e-10, cumulative = 1.050683e-09
amgSolver:  Solving for p, Initial residual = 0.0028058328, Final residual = 9.1043323e-08, No Iterations 15
time step continuity errors : sum local = 1.6282303e-09, global = -3.4492683e-10, cumulative = 7.0575616e-10
ExecutionTime = 1.06 s  ClockTime = 1 s

forces output:
    forces(pressure, viscous)((308.0628 -9.367259 -4.0272811e-16) (4.4921396 -0.092862841 1.4361097e-16))
    moment(pressure, viscous)((0.46836295 15.40314 3.3599981e-10) (0.004643142 0.22460698 -0.0010948402))

forceCoeffs output:
    Cd = 625.10988
    Cl = -18.920244
    Cm = 0

Time = 0.015

Courant Number mean: 1.5258327 max: 13.551999 velocity magnitude: 234.95721
smoothSolver:  Solving for Ux, Initial residual = 0.0051752252, Final residual = 9.8127403e-08, No Iterations 23
smoothSolver:  Solving for Uy, Initial residual = 0.0076165906, Final residual = 7.5477299e-08, No Iterations 25
amgSolver:  Solving for p, Initial residual = 0.022570872, Final residual = 7.8435847e-08, No Iterations 22
time step continuity errors : sum local = 1.4055863e-09, global = 2.9414004e-10, cumulative = 9.9989619e-10
amgSolver:  Solving for p, Initial residual = 0.01149133, Final residual = 8.5413472e-08, No Iterations 21
time step continuity errors : sum local = 1.5324439e-09, global = -3.2067791e-10, cumulative = 6.7921828e-10
amgSolver:  Solving for p, Initial residual = 0.0048224926, Final residual = 8.5723206e-08, No Iterations 17
time step continuity errors : sum local = 1.5341368e-09, global = 3.2095316e-10, cumulative = 1.0001714e-09
amgSolver:  Solving for p, Initial residual = 0.0027163141, Final residual = 9.3362005e-08, No Iterations 15
time step continuity errors : sum local = 1.6764879e-09, global = -3.4735917e-10, cumulative = 6.5281227e-10
ExecutionTime = 1.09 s  ClockTime = 1 s

forces output:
    forces(pressure, viscous)((306.6376 -6.5945964 -4.0021501e-16) (4.4719602 -0.074165748 1.4280153e-16))
    moment(pressure, viscous)((0.32972982 15.33188 3.6121243e-10) (0.0037082874 0.22359801 -0.00053522236))

forceCoeffs output:
    Cd = 622.21912
    Cl = -13.337524
    Cm = 0

Time = 0.0155

Courant Number mean: 1.524656 max: 13.540418 velocity magnitude: 234.52548
smoothSolver:  Solving for Ux, Initial residual = 0.0049365854, Final residual = 9.7624481e-08, No Iterations 23
smoothSolver:  Solving for Uy, Initial residual = 0.0075377616, Final residual = 7.229698e-08, No Iterations 25
amgSolver:  Solving for p, Initial residual = 0.021209655, Final residual = 7.8569244e-08, No Iterations 22
time step continuity errors : sum local = 1.4152376e-09, global = 2.9352286e-10, cumulative = 9.4633513e-10
amgSolver:  Solving for p, Initial residual = 0.011190651, Final residual = 8.4741254e-08, No Iterations 21
time step continuity errors : sum local = 1.5285246e-09, global = -3.1700841e-10, cumulative = 6.2932672e-10
amgSolver:  Solving for p, Initial residual = 0.004731354, Final residual = 8.4817432e-08, No Iterations 17
time step continuity errors : sum local = 1.5274507e-09, global = 3.1673134e-10, cumulative = 9.4605806e-10
amgSolver:  Solving for p, Initial residual = 0.0026717246, Final residual = 8.9446774e-08, No Iterations 15
time step continuity errors : sum local = 1.6166718e-09, global = -3.3174515e-10, cumulative = 6.1431292e-10
ExecutionTime = 1.12 s  ClockTime = 2 s

forces output:
    forces(pressure, viscous)((305.4062 -3.3247746 -3.9761971e-16) (4.4543197 -0.050168011 1.4204632e-16))
    moment(pressure, viscous)((0.16623873 15.27031 3.7061693e-10) (0.0025084005 0.22271599 8.8426166e-05))

forceCoeffs output:
    Cd = 619.72104
    Cl = -6.7498853
    Cm = 0

Time = 0.016

Courant Number mean: 1.5235001 max: 13.527131 velocity magnitude: 234.06421
smoothSolver:  Solving for Ux, Initial residual = 0.0047397325, Final residual = 9.7958116e-08, No Iterations 23
smoothSolver:  Solving for Uy, Initial residual = 0.0075874608, Final residual = 9.3551265e-08, No Iterations 25
amgSolver:  Solving for p, Initial residual = 0.020932615, Final residual = 7.8740837e-08, No Iterations 22
time step continuity errors : sum local = 1.4278205e-09, global = 2.8939217e-10, cumulative = 9.0370509e-10
amgSolver:  Solving for p, Initial residual = 0.011140018, Final residual = 8.1346574e-08, No Iterations 21
time step continuity errors : sum local = 1.4782535e-09, global = -2.9948575e-10, cumulative = 6.0421934e-10
amgSolver:  Solving for p, Initial residual = 0.0047300901, Final residual = 8.2137666e-08, No Iterations 17
time step continuity errors : sum local = 1.4905431e-09, global = 3.0172094e-10, cumulative = 9.0594028e-10
amgSolver:  Solving for p, Initial residual = 0.0026480547, Final residual = 8.6096736e-08, No Iterations 15
time step continuity errors : sum local = 1.5681411e-09, global = -3.1503413e-10, cumulative = 5.9090616e-10
ExecutionTime = 1.14 s  ClockTime = 2 s

forces output:
    forces(pressure, viscous)((304.32232 0.34665907 -3.950783e-16) (4.4387536 -0.021388456 1.4144884e-16))
    moment(pressure, viscous)((-0.017332953 15.216116 3.684478e-10) (0.0010694228 0.22193768 0.00078573145))

forceCoeffs output:
    Cd = 617.52215
    Cl = 0.65054122
    Cm = 0

Time = 0.0165

Courant Number mean: 1.5223497 max: 13.512236 velocity magnitude: 233.57777
smoothSolver:  Solving for Ux, Initial residual = 0.0045716888, Final residual = 9.8273537e-08, No Iterations 23
smoothSolver:  Solving for Uy, Initial residual = 0.0076835797, Final residual = 9.0934561e-08, No Iterations 26
amgSolver:  Solving for p, Initial residual = 0.021207023, Final residual = 6.5188308e-08, No Iterations 22
time step continuity errors : sum local = 1.1932399e-09, global = 2.3292252e-10, cumulative = 8.2382868e-10
amgSolver:  Solving for p, Initial residual = 0.011220788, Final residual = 6.7666542e-08, No Iterations 21
time step continuity errors : sum local = 1.2427573e-09, global = -2.4220113e-10, cumulative = 5.8162755e-10
amgSolver:  Solving for p, Initial residual = 0.0047659145, Final residual = 7.4348182e-08, No Iterations 17
time step continuity errors : sum local = 1.3639254e-09, global = 2.6539907e-10, cumulative = 8.4702661e-10
amgSolver:  Solving for p, Initial residual = 0.0026500336, Final residual = 7.5971642e-08, No Iterations 15
time step continuity errors : sum local = 1.398908e-09, global = -2.690048e-10, cumulative = 5.7802181e-10
ExecutionTime = 1.17 s  ClockTime = 2 s

forces output:
    forces(pressure, viscous)((303.3667 4.3363306 -3.9255965e-16) (4.4247952 0.011839034 1.4100093e-16))
    moment(pressure, viscous)((-0.21681653 15.168335 3.6033829e-10) (-0.0005919517 0.22123976 0.001584033))

forceCoeffs output:
    Cd = 615.583
    Cl = 8.6963393
    Cm = 0

Time = 0.017

Courant Number mean: 1.5213471 max: 13.495881 velocity magnitude: 233.07087
smoothSolver:  Solving for Ux, Initial residual = 0.0044138105, Final residual = 7.1175244e-08, No Iterations 24
smoothSolver:  Solving for Uy, Initial residual = 0.0077144753, Final residual = 8.6437655e-08, No Iterations 27
amgSolver:  Solving for p, Initial residual = 0.020702985, Final residual = 6.1124791e-08, No Iterations 22
time step continuity errors : sum local = 1.1278137e-09, global = 2.4346609e-10, cumulative = 8.214879e-10
amgSolver:  Solving for p, Initial residual = 0.011322276, Final residual = 6.4188444e-08, No Iterations 21
time step continuity errors : sum local = 1.1854027e-09, global = -2.555144e-10, cumulative = 5.659735e-10
amgSolver:  Solving for p, Initial residual = 0.0046508399, Final residual = 7.086618e-08, No Iterations 17
time step continuity errors : sum local = 1.3073224e-09, global = 2.8102073e-10, cumulative = 8.4699423e-10
amgSolver:  Solving for p, Initial residual = 0.0026551196, Final residual = 6.5937362e-08, No Iterations 15
time step continuity errors : sum local = 1.2206014e-09, global = -2.4891448e-10, cumulative = 5.9807975e-10
ExecutionTime = 1.2 s  ClockTime = 2 s

forces output:
    forces(pressure, viscous)((302.60693 8.6947054 -3.9009687e-16) (4.4124675 0.049833248 1.4066881e-16))
    moment(pressure, viscous)((-0.43473527 15.130347 3.5098249e-10) (-0.0024916624 0.22062337 0.0025519692))

forceCoeffs output:
    Cd = 614.0388
    Cl = 17.489077
    Cm = 0

Time = 0.0175

Courant Number mean: 1.5203748 max: 13.478118 velocity magnitude: 232.87687
smoothSolver:  Solving for Ux, Initial residual = 0.0043067314, Final residual = 7.3597365e-08, No Iterations 24
smoothSolver:  Solving for Uy, Initial residual = 0.0077135003, Final residual = 7.8649145e-08, No Iterations 28
amgSolver:  Solving for p, Initial residual = 0.02131203, Final residual = 9.1345248e-08, No Iterations 21
time step continuity errors : sum local = 1.6921115e-09, global = 3.6692394e-10, cumulative = 9.6500368e-10
amgSolver:  Solving for p, Initial residual = 0.011731736, Final residual = 9.7664549e-08, No Iterations 20
time step continuity errors : sum local = 1.8091043e-09, global = -3.9068888e-10, cumulative = 5.7431481e-10
amgSolver:  Solving for p, Initial residual = 0.0046696513, Final residual = 6.341559e-08, No Iterations 17
time step continuity errors : sum local = 1.1740784e-09, global = 2.5276877e-10, cumulative = 8.2708358e-10
amgSolver:  Solving for p, Initial residual = 0.0026811847, Final residual = 6.5233545e-08, No Iterations 15
time step continuity errors : sum local = 1.2115467e-09, global = -2.4914689e-10, cumulative = 5.7793668e-10
ExecutionTime = 1.23 s  ClockTime = 2 s

forces output:
    forces(pressure, viscous)((302.05281 13.413469 -3.8753763e-16) (4.4029443 0.093094499 1.4015555e-16))
    moment(pressure, viscous)((-0.67067345 15.102641 3.450082e-10) (-0.0046547249 0.22014722 0.0039085731))

forceCoeffs output:
    Cd = 612.91151
    Cl = 27.013127
    Cm = 0

Time = 0.018

Courant Number mean: 1.5194224 max: 13.459062 velocity magnitude: 232.94737
smoothSolver:  Solving for Ux, Initial residual = 0.0042436855, Final residual = 7.6648255e-08, No Iterations 24
smoothSolver:  Solving for Uy, Initial residual = 0.007744068, Final residual = 9.638969e-08, No Iterations 28
amgSolver:  Solving for p, Initial residual = 0.022287005, Final residual = 9.8876011e-08, No Iterations 21
time step continuity errors : sum local = 1.8370092e-09, global = 3.7122911e-10, cumulative = 9.491658e-10
amgSolver:  Solving for p, Initial residual = 0.012290204, Final residual = 6.0930366e-08, No Iterations 21
time step continuity errors : sum local = 1.1315556e-09, global = -2.2844645e-10, cumulative = 7.2071935e-10
amgSolver:  Solving for p, Initial residual = 0.0047518792, Final residual = 6.0779218e-08, No Iterations 17
time step continuity errors : sum local = 1.1286213e-09, global = 2.2766959e-10, cumulative = 9.4838894e-10
amgSolver:  Solving for p, Initial residual = 0.0027027962, Final residual = 7.1590311e-08, No Iterations 15
time step continuity errors : sum local = 1.3330287e-09, global = -2.6717769e-10, cumulative = 6.8121125e-10
ExecutionTime = 1.27 s  ClockTime = 2 s

forces output:
    forces(pressure, viscous)((301.64204 18.156947 -3.8470984e-16) (4.3943864 0.1397416 1.3969844e-16))
    moment(pressure, viscous)((-0.90784735 15.082102 3.3487806e-10) (-0.0069870798 0.21971932 0.00542033))

forceCoeffs output:
    Cd = 612.07285
    Cl = 36.593377
    Cm = 0

Time = 0.0185

Courant Number mean: 1.5185138 max: 13.438988 velocity magnitude: 233.05152
smoothSolver:  Solving for Ux, Initial residual = 0.0041669024, Final residual = 7.8114825e-08, No Iterations 24
smoothSolver:  Solving for Uy, Initial residual = 0.0077697215, Final residual = 7.8123593e-08, No Iterations 29
amgSolver:  Solving for p, Initial residual = 0.023580822, Final residual = 8.8047463e-08, No Iterations 21
time step continuity errors : sum local = 1.6398011e-09, global = 3.5576134e-10, cumulative = 1.0369726e-09
amgSolver:  Solving for p, Initial residual = 0.012594068, Final residual = 9.5957805e-08, No Iterations 20
time step continuity errors : sum local = 1.7866844e-09, global = -3.8734418e-10, cumulative = 6.4962841e-10
amgSolver:  Solving for p, Initial residual = 0.0048037419, Final residual = 8.5461363e-08, No Iterations 16
time step continuity errors : sum local = 1.5925397e-09, global = 3.44578e-10, cumulative = 9.9420641e-10
amgSolver:  Solving for p, Initial residual = 0.0027563355, Final residual = 6.5557915e-08, No Iterations 15
time step continuity errors : sum local = 1.224273e-09, global = -2.5813237e-10, cumulative = 7.3607404e-10
ExecutionTime = 1.31 s  ClockTime = 2 s

forces output:
    forces(pressure, viscous)((301.38686 22.805663 -3.8176434e-16) (4.3865613 0.18843402 1.392025e-16))
    moment(pressure, viscous)((-1.1402832 15.069343 3.1892385e-10) (-0.0094217009 0.21932806 0.007055567))

forceCoeffs output:
    Cd = 611.54685
    Cl = 45.988195
    Cm = 0

Time = 0.019

Courant Number mean: 1.5176081 max: 13.418402 velocity magnitude: 233.18133
smoothSolver:  Solving for Ux, Initial residual = 0.004093344, Final residual = 7.7769673e-08, No Iterations 24
smoothSolver:  Solving for Uy, Initial residual = 0.0078046052, Final residual = 8.3765859e-08, No Iterations 29
amgSolver:  Solving for p, Initial residual = 0.023724637, Final residual = 9.5984203e-08, No Iterations 21
time step continuity errors : sum local = 1.7929342e-09, global = 3.5931072e-10, cumulative = 1.0953848e-09
amgSolver:  Solving for p, Initial residual = 0.012935199, Final residual = 6.3141694e-08, No Iterations 21
time step continuity errors : sum local = 1.1780514e-09, global = -2.3570232e-10, cumulative = 8.5968244e-10
amgSolver:  Solving for p, Initial residual = 0.0049212582, Final residual = 8.8419643e-08, No Iterations 16
time step continuity errors : sum local = 1.652228e-09, global = 3.3044493e-10, cumulative = 1.1901274e-09
amgSolver:  Solving for p, Initial residual = 0.0028668021, Final residual = 8.4694553e-08, No Iterations 15
time step continuity errors : sum local = 1.5858171e-09, global = -3.1664951e-10, cumulative = 8.7347786e-10
ExecutionTime = 1.35 s  ClockTime = 2 s

forces output:
    forces(pressure, viscous)((301.26276 27.185632 -3.7855261e-16) (4.3800989 0.2379476 1.3861928e-16))
    moment(pressure, viscous)((-1.3592816 15.063138 2.945191e-10) (-0.01189738 0.21900494 0.0088887131))

forceCoeffs output:
    Cd = 611.28573
    Cl = 54.84716
    Cm = 0

Time = 0.0195

Courant Number mean: 1.5166814 max: 13.397814 velocity magnitude: 233.32568
smoothSolver:  Solving for Ux, Initial residual = 0.0040474036, Final residual = 7.5796314e-08, No Iterations 24
smoothSolver:  Solving for Uy, Initial residual = 0.0078209593, Final residual = 8.664601e-08, No Iterations 29
amgSolver:  Solving for p, Initial residual = 0.023363769, Final residual = 5.8363652e-08, No Iterations 22
time step continuity errors : sum local = 1.0942596e-09, global = -2.1401368e-10, cumulative = 6.5946418e-10
amgSolver:  Solving for p, Initial residual = 0.0129145, Final residual = 6.4826985e-08, No Iterations 21
time step continuity errors : sum local = 1.213749e-09, global = 2.3191354e-10, cumulative = 8.9137772e-10
amgSolver:  Solving for p, Initial residual = 0.0050535886, Final residual = 8.4032567e-08, No Iterations 16
time step continuity errors : sum local = 1.5755158e-09, global = 3.0927282e-10, cumulative = 1.2006505e-09
amgSolver:  Solving for p, Initial residual = 0.0029293565, Final residual = 8.515376e-08, No Iterations 15
time step continuity errors : sum local = 1.5997986e-09, global = -3.1288279e-10, cumulative = 8.8776774e-10
ExecutionTime = 1.39 s  ClockTime = 2 s

forces output:
    forces(pressure, viscous)((301.3123 31.106774 -3.7525812e-16) (4.3749428 0.28651031 1.3798751e-16))
    moment(pressure, viscous)((-1.5553387 15.065615 2.6493936e-10) (-0.014325515 0.21874714 0.010843825))

forceCoeffs output:
    Cd = 611.37448
    Cl = 62.786569
    Cm = 0

Time = 0.02

Courant Number mean: 1.5156824 max: 13.377758 velocity magnitude: 233.47056
smoothSolver:  Solving for Ux, Initial residual = 0.0040066471, Final residual = 7.2038826e-08, No Iterations 24
smoothSolver:  Solving for Uy, Initial residual = 0.0078713341, Final residual = 8.6568549e-08, No Iterations 29
amgSolver:  Solving for p, Initial residual = 0.023831382, Final residual = 7.0513849e-08, No Iterations 22
time step continuity errors : sum local = 1.3278641e-09, global = -2.6478769e-10, cumulative = 6.2298005e-10
amgSolver:  Solving for p, Initial residual = 0.012765643, Final residual = 7.9064241e-08, No Iterations 21
time step continuity errors : sum local = 1.4879856e-09, global = 2.9274776e-10, cumulative = 9.1572781e-10
amgSolver:  Solving for p, Initial residual = 0.0051950115, Final residual = 9.0868302e-08, No Iterations 16
time step continuity errors : sum local = 1.7126914e-09, global = 3.4240891e-10, cumulative = 1.2581367e-09
amgSolver:  Solving for p, Initial residual = 0.0029349523, Final residual = 8.8835484e-08, No Iterations 15
time step continuity errors : sum local = 1.6780389e-09, global = -3.3433413e-10, cumulative = 9.2380259e-10
ExecutionTime = 1.43 s  ClockTime = 2 s

forces output:
    forces(pressure, viscous)((301.47652 34.331978 -3.7204914e-16) (4.3707399 0.33190083 1.3734695e-16))
    moment(pressure, viscous)((-1.7165989 15.073826 2.349029e-10) (-0.016595042 0.21853699 0.012828822))

forceCoeffs output:
    Cd = 611.69451
    Cl = 69.327757
    Cm = 0

Time = 0.0205

Courant Number mean: 1.5147321 max: 13.358805 velocity magnitude: 233.60041
smoothSolver:  Solving for Ux, Initial residual = 0.0039625024, Final residual = 9.4828053e-08, No Iterations 23
smoothSolver:  Solving for Uy, Initial residual = 0.0079629185, Final residual = 8.3335166e-08, No Iterations 29
amgSolver:  Solving for p, Initial residual = 0.023858155, Final residual = 7.6339387e-08, No Iterations 22
time step continuity errors : sum local = 1.4471208e-09, global = -2.8809771e-10, cumulative = 6.3570488e-10
amgSolver:  Solving for p, Initial residual = 0.01253197, Final residual = 8.2541589e-08, No Iterations 21
time step continuity errors : sum local = 1.5660348e-09, global = 3.0860594e-10, cumulative = 9.4431082e-10
amgSolver:  Solving for p, Initial residual = 0.0051930365, Final residual = 6.1362265e-08, No Iterations 17
time step continuity errors : sum local = 1.1653258e-09, global = 2.3232517e-10, cumulative = 1.176636e-09
amgSolver:  Solving for p, Initial residual = 0.0029230325, Final residual = 9.6013957e-08, No Iterations 15
time step continuity errors : sum local = 1.8278801e-09, global = -3.6211616e-10, cumulative = 8.1451983e-10
ExecutionTime = 1.46 s  ClockTime = 2 s

forces output:
    forces(pressure, viscous)((301.69682 36.671675 -3.690446e-16) (4.3666833 0.37151824 1.3671492e-16))
    moment(pressure, viscous)((-1.8335837 15.084841 2.0268497e-10) (-0.018575912 0.21833417 0.014688478))

forceCoeffs output:
    Cd = 612.127
    Cl = 74.086386
    Cm = 0

Time = 0.021

Courant Number mean: 1.5138809 max: 13.341561 velocity magnitude: 233.69948
smoothSolver:  Solving for Ux, Initial residual = 0.0039158833, Final residual = 8.3879526e-08, No Iterations 23
smoothSolver:  Solving for Uy, Initial residual = 0.0080597578, Final residual = 7.6839116e-08, No Iterations 29
amgSolver:  Solving for p, Initial residual = 0.023666238, Final residual = 8.5127792e-08, No Iterations 21
time step continuity errors : sum local = 1.6274401e-09, global = 4.9005491e-10, cumulative = 1.3045747e-09
amgSolver:  Solving for p, Initial residual = 0.011981935, Final residual = 7.103467e-08, No Iterations 21
time step continuity errors : sum local = 1.3586677e-09, global = -2.7593279e-10, cumulative = 1.028642e-09
amgSolver:  Solving for p, Initial residual = 0.005152332, Final residual = 6.1693675e-08, No Iterations 17
time step continuity errors : sum local = 1.1789415e-09, global = 2.383352e-10, cumulative = 1.2669772e-09
amgSolver:  Solving for p, Initial residual = 0.0029243174, Final residual = 9.6456475e-08, No Iterations 15
time step continuity errors : sum local = 1.8474529e-09, global = -3.7181759e-10, cumulative = 8.9515956e-10
ExecutionTime = 1.49 s  ClockTime = 2 s

forces output:
    forces(pressure, viscous)((301.87292 37.914814 -3.6672582e-16) (4.3627761 0.40174995 1.3621819e-16))
    moment(pressure, viscous)((-1.8957407 15.093646 1.6365959e-10) (-0.020087497 0.2181388 0.016141443))

forceCoeffs output:
    Cd = 612.47139
    Cl = 76.633128
    Cm = 0

Time = 0.0215

Courant Number mean: 1.5131458 max: 13.326763 velocity magnitude: 233.75188
smoothSolver:  Solving for Ux, Initial residual = 0.0038500481, Final residual = 9.916183e-08, No Iterations 22
smoothSolver:  Solving for Uy, Initial residual = 0.0081109858, Final residual = 9.3568573e-08, No Iterations 28
amgSolver:  Solving for p, Initial residual = 0.024872112, Final residual = 8.2452486e-08, No Iterations 21
time step continuity errors : sum local = 1.5841228e-09, global = 5.2682159e-10, cumulative = 1.4219812e-09
amgSolver:  Solving for p, Initial residual = 0.011808258, Final residual = 6.4138786e-08, No Iterations 21
time step continuity errors : sum local = 1.2317199e-09, global = -2.4959804e-10, cumulative = 1.1723831e-09
amgSolver:  Solving for p, Initial residual = 0.0052381841, Final residual = 9.9454628e-08, No Iterations 16
time step continuity errors : sum local = 1.9069183e-09, global = 3.8447828e-10, cumulative = 1.5568614e-09
amgSolver:  Solving for p, Initial residual = 0.0028807489, Final residual = 9.1030467e-08, No Iterations 15
time step continuity errors : sum local = 1.7494041e-09, global = -3.5185479e-10, cumulative = 1.2050066e-09
ExecutionTime = 1.52 s  ClockTime = 2 s

forces output:
    forces(pressure, viscous)((301.83608 37.962837 -3.6472745e-16) (4.3587792 0.42150063 1.3566687e-16))
    moment(pressure, viscous)((-1.8981418 15.091804 1.2470801e-10) (-0.021075031 0.21793896 0.017209975))

forceCoeffs output:
    Cd = 612.38972
    Cl = 76.768674
    Cm = 0

Time = 0.022

Courant Number mean: 1.5125509 max: 13.315045 velocity magnitude: 233.74209
smoothSolver:  Solving for Ux, Initial residual = 0.0037914884, Final residual = 7.527796e-08, No Iterations 22
smoothSolver:  Solving for Uy, Initial residual = 0.0081551117, Final residual = 7.4639206e-08, No Iterations 28
amgSolver:  Solving for p, Initial residual = 0.02507014, Final residual = 7.2062341e-08, No Iterations 22
time step continuity errors : sum local = 1.3896663e-09, global = 4.3437822e-10, cumulative = 1.6393848e-09
amgSolver:  Solving for p, Initial residual = 0.011643372, Final residual = 8.8346648e-08, No Iterations 21
time step continuity errors : sum local = 1.7060407e-09, global = -3.5298276e-10, cumulative = 1.2864021e-09
amgSolver:  Solving for p, Initial residual = 0.0051569356, Final residual = 9.8963981e-08, No Iterations 16
time step continuity errors : sum local = 1.9083377e-09, global = 3.7689686e-10, cumulative = 1.6632989e-09
amgSolver:  Solving for p, Initial residual = 0.0027525345, Final residual = 8.5132733e-08, No Iterations 15
time step continuity errors : sum local = 1.6448387e-09, global = -3.2636796e-10, cumulative = 1.336931e-09
ExecutionTime = 1.56 s  ClockTime = 2 s

forces output:
    forces(pressure, viscous)((301.70334 36.815416 -3.6335319e-16) (4.3552967 0.43105237 1.3522946e-16))
    moment(pressure, viscous)((-1.8407708 15.085167 9.7711061e-11) (-0.021552618 0.21776483 0.018035338))

forceCoeffs output:
    Cd = 612.11727
    Cl = 74.492936
    Cm = 0

Time = 0.0225

Courant Number mean: 1.5120461 max: 13.306812 velocity magnitude: 233.65987
smoothSolver:  Solving for Ux, Initial residual = 0.0037063761, Final residual = 7.4304355e-08, No Iterations 21
smoothSolver:  Solving for Uy, Initial residual = 0.0080602289, Final residual = 7.3838128e-08, No Iterations 27
amgSolver:  Solving for p, Initial residual = 0.024933076, Final residual = 8.1839353e-08, No Iterations 22
time step continuity errors : sum local = 1.5861995e-09, global = -3.2444775e-10, cumulative = 1.0124832e-09
amgSolver:  Solving for p, Initial residual = 0.011480184, Final residual = 9.156642e-08, No Iterations 21
time step continuity errors : sum local = 1.7761211e-09, global = 3.5925644e-10, cumulative = 1.3717397e-09
amgSolver:  Solving for p, Initial residual = 0.0048216171, Final residual = 8.3451288e-08, No Iterations 16
time step continuity errors : sum local = 1.6185149e-09, global = 3.3492956e-10, cumulative = 1.7066692e-09
amgSolver:  Solving for p, Initial residual = 0.002582719, Final residual = 9.8467844e-08, No Iterations 14
time step continuity errors : sum local = 1.9125298e-09, global = -3.9075499e-10, cumulative = 1.3159142e-09
ExecutionTime = 1.59 s  ClockTime = 2 s

forces output:
    forces(pressure, viscous)((301.42246 34.563829 -3.6216818e-16) (4.3518731 0.43060811 1.3475859e-16))
    moment(pressure, viscous)((-1.7281914 15.071123 8.0361565e-11) (-0.021530406 0.21759366 0.018648727))

forceCoeffs output:
    Cd = 611.54867
    Cl = 69.988873
    Cm = 0

Time = 0.023

Courant Number mean: 1.5115888 max: 13.302232 velocity magnitude: 233.50078
smoothSolver:  Solving for Ux, Initial residual = 0.0036385913, Final residual = 7.6492365e-08, No Iterations 20
smoothSolver:  Solving for Uy, Initial residual = 0.0080529624, Final residual = 8.1375706e-08, No Iterations 25
amgSolver:  Solving for p, Initial residual = 0.024413604, Final residual = 7.4868792e-08, No Iterations 22
time step continuity errors : sum local = 1.4581967e-09, global = -2.7328172e-10, cumulative = 1.0426325e-09
amgSolver:  Solving for p, Initial residual = 0.011297832, Final residual = 8.8000513e-08, No Iterations 21
time step continuity errors : sum local = 1.7140502e-09, global = 3.1752878e-10, cumulative = 1.3601613e-09
amgSolver:  Solving for p, Initial residual = 0.0045880214, Final residual = 6.9047334e-08, No Iterations 16
time step continuity errors : sum local = 1.3457462e-09, global = 2.546404e-10, cumulative = 1.6148017e-09
amgSolver:  Solving for p, Initial residual = 0.0024367352, Final residual = 7.6257406e-08, No Iterations 14
time step continuity errors : sum local = 1.4878975e-09, global = 1.9132879e-11, cumulative = 1.6339346e-09
ExecutionTime = 1.62 s  ClockTime = 2 s

forces output:
    forces(pressure, viscous)((300.97406 31.260828 -3.6126959e-16) (4.3475708 0.41949944 1.3426637e-16))
    moment(pressure, viscous)((-1.5630414 15.048703 7.3881276e-11) (-0.020974972 0.21737854 0.018964369))

forceCoeffs output:
    Cd = 610.64326
    Cl = 63.360654
    Cm = 0

Time = 0.0235

Courant Number mean: 1.5111493 max: 13.301346 velocity magnitude: 233.26318
smoothSolver:  Solving for Ux, Initial residual = 0.0035815023, Final residual = 8.8553148e-08, No Iterations 19
smoothSolver:  Solving for Uy, Initial residual = 0.0080460309, Final residual = 8.9778939e-08, No Iterations 22
amgSolver:  Solving for p, Initial residual = 0.023927828, Final residual = 7.2940521e-08, No Iterations 22
time step continuity errors : sum local = 1.4258481e-09, global = -2.734186e-10, cumulative = 1.360516e-09
amgSolver:  Solving for p, Initial residual = 0.011084142, Final residual = 8.4468592e-08, No Iterations 21
time step continuity errors : sum local = 1.6516416e-09, global = 3.1454871e-10, cumulative = 1.6750647e-09
amgSolver:  Solving for p, Initial residual = 0.0043980418, Final residual = 5.9818251e-08, No Iterations 16
time step continuity errors : sum local = 1.170514e-09, global = 2.2756872e-10, cumulative = 1.9026334e-09
amgSolver:  Solving for p, Initial residual = 0.0023195658, Final residual = 9.4468166e-08, No Iterations 14
time step continuity errors : sum local = 1.8500098e-09, global = 3.4498553e-10, cumulative = 2.2476189e-09
ExecutionTime = 1.65 s  ClockTime = 2 s

forces output:
    forces(pressure, viscous)((300.38686 26.996417 -3.6094074e-16) (4.3418961 0.39704797 1.3383328e-16))
    moment(pressure, viscous)((-1.3498209 15.019343 7.9789689e-11) (-0.019852399 0.2170948 0.01886119))

forceCoeffs output:
    Cd = 609.45752
    Cl = 54.78693
    Cm = 0

Time = 0.024

Courant Number mean: 1.5107493 max: 13.304165 velocity magnitude: 232.94889
smoothSolver:  Solving for Ux, Initial residual = 0.0035283667, Final residual = 8.8751853e-08, No Iterations 20
smoothSolver:  Solving for Uy, Initial residual = 0.0080616784, Final residual = 7.3995397e-08, No Iterations 25
amgSolver:  Solving for p, Initial residual = 0.024581978, Final residual = 9.8557941e-08, No Iterations 21
time step continuity errors : sum local = 1.9313505e-09, global = 4.0726207e-10, cumulative = 2.654881e-09
amgSolver:  Solving for p, Initial residual = 0.01103703, Final residual = 6.5887309e-08, No Iterations 21
time step continuity errors : sum local = 1.2920958e-09, global = -2.7042445e-10, cumulative = 2.3844565e-09
amgSolver:  Solving for p, Initial residual = 0.0042447483, Final residual = 8.1446949e-08, No Iterations 15
time step continuity errors : sum local = 1.596868e-09, global = 3.2180634e-10, cumulative = 2.7062629e-09
amgSolver:  Solving for p, Initial residual = 0.0022338239, Final residual = 7.0011231e-08, No Iterations 14
time step continuity errors : sum local = 1.3736338e-09, global = 2.8509762e-10, cumulative = 2.9913605e-09
ExecutionTime = 1.68 s  ClockTime = 2 s

forces output:
    forces(pressure, viscous)((299.63945 21.955671 -3.6136791e-16) (4.3346844 0.3636632 1.3350564e-16))
    moment(pressure, viscous)((-1.0977836 14.981973 9.7664057e-11) (-0.01818316 0.21673422 0.018283803))

forceCoeffs output:
    Cd = 607.94827
    Cl = 44.638669
    Cm = 0

Time = 0.0245

Courant Number mean: 1.510426 max: 13.310584 velocity magnitude: 232.56456
smoothSolver:  Solving for Ux, Initial residual = 0.0034628296, Final residual = 8.7231473e-08, No Iterations 21
smoothSolver:  Solving for Uy, Initial residual = 0.0081385576, Final residual = 7.3207876e-08, No Iterations 27
amgSolver:  Solving for p, Initial residual = 0.022484235, Final residual = 6.514938e-08, No Iterations 22
time step continuity errors : sum local = 1.2783419e-09, global = -2.454797e-10, cumulative = 2.7458808e-09
amgSolver:  Solving for p, Initial residual = 0.010939132, Final residual = 7.5400891e-08, No Iterations 21
time step continuity errors : sum local = 1.4785529e-09, global = 2.6639187e-10, cumulative = 3.0122727e-09
amgSolver:  Solving for p, Initial residual = 0.0041016968, Final residual = 8.53994e-08, No Iterations 15
time step continuity errors : sum local = 1.67427e-09, global = 3.3287536e-10, cumulative = 3.345148e-09
amgSolver:  Solving for p, Initial residual = 0.0021399647, Final residual = 6.9108075e-08, No Iterations 14
time step continuity errors : sum local = 1.3559274e-09, global = 2.6738939e-10, cumulative = 3.6125374e-09
ExecutionTime = 1.72 s  ClockTime = 2 s

forces output:
    forces(pressure, viscous)((298.67719 16.513549 -3.6187385e-16) (4.3258743 0.32158204 1.3304499e-16))
    moment(pressure, viscous)((-0.82567743 14.93386 1.2888941e-10) (-0.016079102 0.21629371 0.017308994))

forceCoeffs output:
    Cd = 606.00614
    Cl = 33.670261
    Cm = 0

Time = 0.025

Courant Number mean: 1.510234 max: 13.320152 velocity magnitude: 232.12128
smoothSolver:  Solving for Ux, Initial residual = 0.003413854, Final residual = 7.5574222e-08, No Iterations 22
smoothSolver:  Solving for Uy, Initial residual = 0.0083325496, Final residual = 7.7584537e-08, No Iterations 28
amgSolver:  Solving for p, Initial residual = 0.023525461, Final residual = 8.1290367e-08, No Iterations 21
time step continuity errors : sum local = 1.5933412e-09, global = 3.1309901e-10, cumulative = 3.9256364e-09
amgSolver:  Solving for p, Initial residual = 0.011105511, Final residual = 8.8867747e-08, No Iterations 20
time step continuity errors : sum local = 1.7399725e-09, global = -3.4088745e-10, cumulative = 3.584749e-09
amgSolver:  Solving for p, Initial residual = 0.0041679854, Final residual = 7.7684102e-08, No Iterations 15
time step continuity errors : sum local = 1.5208652e-09, global = 2.9496711e-10, cumulative = 3.8797161e-09
amgSolver:  Solving for p, Initial residual = 0.0021903839, Final residual = 6.1982954e-08, No Iterations 14
time step continuity errors : sum local = 1.2143661e-09, global = 2.3504686e-10, cumulative = 4.114763e-09
ExecutionTime = 1.75 s  ClockTime = 2 s

forces output:
    forces(pressure, viscous)((297.66489 11.031748 -3.6262656e-16) (4.3162849 0.27387298 1.3253267e-16))
    moment(pressure, viscous)((-0.55158739 14.883244 1.7114644e-10) (-0.013693649 0.21581425 0.016071765))

forceCoeffs output:
    Cd = 603.96234
    Cl = 22.611242
    Cm = 0

Time = 0.0255

Courant Number mean: 1.5100431 max: 13.33212 velocity magnitude: 231.63692
smoothSolver:  Solving for Ux, Initial residual = 0.003386756, Final residual = 8.8031793e-08, No Iterations 22
smoothSolver:  Solving for Uy, Initial residual = 0.0085396791, Final residual = 9.9053573e-08, No Iterations 28
amgSolver:  Solving for p, Initial residual = 0.024742782, Final residual = 7.9762079e-08, No Iterations 21
time step continuity errors : sum local = 1.559207e-09, global = 3.2535771e-10, cumulative = 4.4401207e-09
amgSolver:  Solving for p, Initial residual = 0.011424554, Final residual = 8.6108333e-08, No Iterations 20
time step continuity errors : sum local = 1.6790284e-09, global = -3.5008317e-10, cumulative = 4.0900375e-09
amgSolver:  Solving for p, Initial residual = 0.0044160237, Final residual = 8.0538156e-08, No Iterations 15
time step continuity errors : sum local = 1.5711695e-09, global = 3.2519437e-10, cumulative = 4.4152319e-09
amgSolver:  Solving for p, Initial residual = 0.0023313842, Final residual = 6.2008917e-08, No Iterations 14
time step continuity errors : sum local = 1.2105999e-09, global = 2.4930952e-10, cumulative = 4.6645414e-09
ExecutionTime = 1.78 s  ClockTime = 2 s

forces output:
    forces(pressure, viscous)((296.56909 5.8305065 -3.6329307e-16) (4.3062216 0.22377553 1.3191224e-16))
    moment(pressure, viscous)((-0.29152533 14.828455 2.1910868e-10) (-0.011188777 0.21531108 0.01470009))

forceCoeffs output:
    Cd = 601.75063
    Cl = 12.108564
    Cm = 0

Time = 0.026

Courant Number mean: 1.5098349 max: 13.345557 velocity magnitude: 231.13314
smoothSolver:  Solving for Ux, Initial residual = 0.0033648271, Final residual = 9.4717402e-08, No Iterations 22
[...]
    moment(pressure, viscous)((-4.1406182 18.301526 3.5740894e-10) (0.0042790498 0.24701838 0.0072828918))

forceCoeffs output:
    Cd = 741.94177
    Cl = 165.45357
    Cm = 0

Time = 0.994

Courant Number mean: 1.5275699 max: 13.854844 velocity magnitude: 240.75872
smoothSolver:  Solving for Ux, Initial residual = 0.029482924, Final residual = 7.9177178e-08, No Iterations 30
smoothSolver:  Solving for Uy, Initial residual = 0.081031277, Final residual = 6.9423717e-08, No Iterations 36
amgSolver:  Solving for p, Initial residual = 0.14039367, Final residual = 8.2621967e-08, No Iterations 24
time step continuity errors : sum local = 1.5999734e-09, global = -3.021957e-10, cumulative = 4.6018326e-07
amgSolver:  Solving for p, Initial residual = 0.087349373, Final residual = 5.9116715e-08, No Iterations 24
time step continuity errors : sum local = 1.1099563e-09, global = 2.0939922e-10, cumulative = 4.6039266e-07
amgSolver:  Solving for p, Initial residual = 0.035166473, Final residual = 7.9990063e-08, No Iterations 19
time step continuity errors : sum local = 1.5160195e-09, global = 2.8534401e-10, cumulative = 4.60678e-07
amgSolver:  Solving for p, Initial residual = 0.019601442, Final residual = 8.8390783e-08, No Iterations 17
time step continuity errors : sum local = 1.6851807e-09, global = 3.2574801e-10, cumulative = 4.6100375e-07
ExecutionTime = 81.29 s  ClockTime = 82 s

forces output:
    forces(pressure, viscous)((358.33443 149.59383 -4.5697093e-16) (4.920918 0.56243206 1.6233518e-16))
    moment(pressure, viscous)((-7.4796916 17.916721 -2.3468398e-10) (-0.028121603 0.2460459 0.024601826))

forceCoeffs output:
    Cd = 726.51069
    Cl = 300.31253
    Cm = 0

Time = 0.9945

Courant Number mean: 1.5260323 max: 13.670473 velocity magnitude: 243.75801
smoothSolver:  Solving for Ux, Initial residual = 0.029772349, Final residual = 7.468163e-08, No Iterations 30
smoothSolver:  Solving for Uy, Initial residual = 0.083436773, Final residual = 6.912518e-08, No Iterations 36
amgSolver:  Solving for p, Initial residual = 0.14071015, Final residual = 7.5564419e-08, No Iterations 24
time step continuity errors : sum local = 1.44977e-09, global = -2.7380369e-10, cumulative = 4.6072995e-07
amgSolver:  Solving for p, Initial residual = 0.085034599, Final residual = 9.2991277e-08, No Iterations 23
time step continuity errors : sum local = 1.7270181e-09, global = 3.2617445e-10, cumulative = 4.6105612e-07
amgSolver:  Solving for p, Initial residual = 0.034353605, Final residual = 6.8567315e-08, No Iterations 19
time step continuity errors : sum local = 1.2914743e-09, global = 2.4380421e-10, cumulative = 4.6129993e-07
amgSolver:  Solving for p, Initial residual = 0.019000642, Final residual = 6.7135982e-08, No Iterations 17
time step continuity errors : sum local = 1.2691794e-09, global = 2.6950248e-10, cumulative = 4.6156943e-07
ExecutionTime = 81.32 s  ClockTime = 82 s

forces output:
    forces(pressure, viscous)((356.38954 206.00375 -4.3182007e-16) (4.9042513 1.1778288 1.5970255e-16))
    moment(pressure, viscous)((-10.300188 17.819477 -1.1697012e-09) (-0.05889144 0.24521257 0.041736484))

forceCoeffs output:
    Cd = 722.58757
    Cl = 414.36316
    Cm = 0

Time = 0.995

Courant Number mean: 1.5235588 max: 13.483712 velocity magnitude: 248.93474
smoothSolver:  Solving for Ux, Initial residual = 0.029860565, Final residual = 9.9704192e-08, No Iterations 29
smoothSolver:  Solving for Uy, Initial residual = 0.085801308, Final residual = 9.2771727e-08, No Iterations 35
amgSolver:  Solving for p, Initial residual = 0.14206744, Final residual = 7.6350263e-08, No Iterations 24
time step continuity errors : sum local = 1.4621068e-09, global = -2.4462659e-10, cumulative = 4.613248e-07
amgSolver:  Solving for p, Initial residual = 0.083416128, Final residual = 9.0913791e-08, No Iterations 23
time step continuity errors : sum local = 1.7044703e-09, global = 2.8518647e-10, cumulative = 4.6160999e-07
amgSolver:  Solving for p, Initial residual = 0.032469906, Final residual = 7.6910492e-08, No Iterations 19
time step continuity errors : sum local = 1.4517805e-09, global = 2.4298303e-10, cumulative = 4.6185297e-07
amgSolver:  Solving for p, Initial residual = 0.01760467, Final residual = 7.9158877e-08, No Iterations 17
time step continuity errors : sum local = 1.4998742e-09, global = 2.4981738e-10, cumulative = 4.6210279e-07
ExecutionTime = 81.36 s  ClockTime = 82 s

forces output:
    forces(pressure, viscous)((359.65579 245.72295 -4.0953121e-16) (4.8992106 1.7041722 1.5618523e-16))
    moment(pressure, viscous)((-12.286148 17.982789 -1.7335306e-09) (-0.085208609 0.24496053 0.057469549))

forceCoeffs output:
    Cd = 729.11
    Cl = 494.85425
    Cm = 0

Time = 0.9955

Courant Number mean: 1.52182 max: 13.309248 velocity magnitude: 253.31337
smoothSolver:  Solving for Ux, Initial residual = 0.029891156, Final residual = 8.2918275e-08, No Iterations 29
smoothSolver:  Solving for Uy, Initial residual = 0.087194316, Final residual = 7.9628924e-08, No Iterations 35
amgSolver:  Solving for p, Initial residual = 0.14107607, Final residual = 7.771358e-08, No Iterations 24
time step continuity errors : sum local = 1.4913498e-09, global = -2.3722139e-10, cumulative = 4.6186557e-07
amgSolver:  Solving for p, Initial residual = 0.084290077, Final residual = 9.3195425e-08, No Iterations 23
time step continuity errors : sum local = 1.7419885e-09, global = 2.7669935e-10, cumulative = 4.6214227e-07
amgSolver:  Solving for p, Initial residual = 0.030097058, Final residual = 9.299031e-08, No Iterations 18
time step continuity errors : sum local = 1.7558414e-09, global = -7.3117296e-11, cumulative = 4.6206915e-07
amgSolver:  Solving for p, Initial residual = 0.016142315, Final residual = 6.7929147e-08, No Iterations 17
time step continuity errors : sum local = 1.283423e-09, global = 2.0017785e-10, cumulative = 4.6226933e-07
ExecutionTime = 81.39 s  ClockTime = 82 s

forces output:
    forces(pressure, viscous)((367.83884 264.99665 -3.8672796e-16) (4.8894823 2.0843849 1.516145e-16))
    moment(pressure, viscous)((-13.249832 18.391942 -2.0376571e-09) (-0.10421924 0.24447411 0.065707181))

forceCoeffs output:
    Cd = 745.45665
    Cl = 534.16207
    Cm = 0

Time = 0.996

Courant Number mean: 1.5220359 max: 13.159 velocity magnitude: 256.53082
smoothSolver:  Solving for Ux, Initial residual = 0.029729552, Final residual = 9.5480556e-08, No Iterations 28
smoothSolver:  Solving for Uy, Initial residual = 0.087409392, Final residual = 9.3225159e-08, No Iterations 34
amgSolver:  Solving for p, Initial residual = 0.14268964, Final residual = 7.7908234e-08, No Iterations 24
time step continuity errors : sum local = 1.4997535e-09, global = -2.9338752e-10, cumulative = 4.6197594e-07
amgSolver:  Solving for p, Initial residual = 0.085588383, Final residual = 9.9459597e-08, No Iterations 23
time step continuity errors : sum local = 1.8554e-09, global = 3.6297102e-10, cumulative = 4.6233891e-07
amgSolver:  Solving for p, Initial residual = 0.030040074, Final residual = 8.3551674e-08, No Iterations 19
time step continuity errors : sum local = 1.5840197e-09, global = 3.4113242e-10, cumulative = 4.6268004e-07
amgSolver:  Solving for p, Initial residual = 0.015582366, Final residual = 7.8135586e-08, No Iterations 18
time step continuity errors : sum local = 1.4773257e-09, global = 2.8888883e-10, cumulative = 4.6296893e-07
ExecutionTime = 81.43 s  ClockTime = 82 s

forces output:
    forces(pressure, viscous)((378.8682 265.94369 -3.658315e-16) (4.8962258 2.3038301 1.4650934e-16))
    moment(pressure, viscous)((-13.297184 18.94341 -2.2400228e-09) (-0.1151915 0.24481129 0.068435797))

forceCoeffs output:
    Cd = 767.52884
    Cl = 536.49504
    Cm = 0

Time = 0.9965

Courant Number mean: 1.5233965 max: 13.185232 velocity magnitude: 258.37257
smoothSolver:  Solving for Ux, Initial residual = 0.029309282, Final residual = 9.9571986e-08, No Iterations 27
smoothSolver:  Solving for Uy, Initial residual = 0.086499914, Final residual = 6.9174783e-08, No Iterations 34
amgSolver:  Solving for p, Initial residual = 0.13758667, Final residual = 6.6654383e-08, No Iterations 24
time step continuity errors : sum local = 1.2832383e-09, global = -2.3874856e-10, cumulative = 4.6273018e-07
amgSolver:  Solving for p, Initial residual = 0.085668003, Final residual = 8.568927e-08, No Iterations 23
time step continuity errors : sum local = 1.5993044e-09, global = 2.9755708e-10, cumulative = 4.6302774e-07
amgSolver:  Solving for p, Initial residual = 0.030133576, Final residual = 7.0024804e-08, No Iterations 19
time step continuity errors : sum local = 1.3312974e-09, global = -2.4307845e-10, cumulative = 4.6278466e-07
amgSolver:  Solving for p, Initial residual = 0.01601677, Final residual = 8.8063359e-08, No Iterations 18
time step continuity errors : sum local = 1.6664589e-09, global = 3.0975167e-10, cumulative = 4.6309441e-07
ExecutionTime = 81.46 s  ClockTime = 82 s

forces output:
    forces(pressure, viscous)((389.7455 248.96251 -3.5007864e-16) (4.9321229 2.3735517 1.4269374e-16))
    moment(pressure, viscous)((-12.448125 19.487275 -2.4268061e-09) (-0.11867759 0.24660615 0.068674145))

forceCoeffs output:
    Cd = 789.35524
    Cl = 502.67212
    Cm = 0

Time = 0.997

Courant Number mean: 1.524744 max: 13.258179 velocity magnitude: 258.78033
smoothSolver:  Solving for Ux, Initial residual = 0.028739457, Final residual = 8.4013315e-08, No Iterations 26
smoothSolver:  Solving for Uy, Initial residual = 0.083799578, Final residual = 7.1486663e-08, No Iterations 33
amgSolver:  Solving for p, Initial residual = 0.13354991, Final residual = 8.5510381e-08, No Iterations 24
time step continuity errors : sum local = 1.6504725e-09, global = -2.9896545e-10, cumulative = 4.6279545e-07
amgSolver:  Solving for p, Initial residual = 0.083417024, Final residual = 6.2147598e-08, No Iterations 24
time step continuity errors : sum local = 1.1635964e-09, global = 2.1076743e-10, cumulative = 4.6300622e-07
amgSolver:  Solving for p, Initial residual = 0.030510768, Final residual = 6.4520405e-08, No Iterations 19
time step continuity errors : sum local = 1.2335949e-09, global = 1.9282599e-10, cumulative = 4.6319904e-07
amgSolver:  Solving for p, Initial residual = 0.016713238, Final residual = 9.914169e-08, No Iterations 18
time step continuity errors : sum local = 1.8932212e-09, global = 3.4295587e-10, cumulative = 4.63542e-07
ExecutionTime = 81.5 s  ClockTime = 82 s

forces output:
    forces(pressure, viscous)((395.74152 214.34419 -3.4188359e-16) (4.9530447 2.2687829 1.39018e-16))
    moment(pressure, viscous)((-10.717209 19.787076 -2.45837e-09) (-0.11343915 0.24765224 0.062344078))

forceCoeffs output:
    Cd = 801.38913
    Cl = 433.22594
    Cm = 0

Time = 0.9975

Courant Number mean: 1.5264472 max: 13.285333 velocity magnitude: 257.79424
smoothSolver:  Solving for Ux, Initial residual = 0.028187305, Final residual = 8.7350961e-08, No Iterations 24
smoothSolver:  Solving for Uy, Initial residual = 0.080200318, Final residual = 9.7201363e-08, No Iterations 31
amgSolver:  Solving for p, Initial residual = 0.13403398, Final residual = 9.8416946e-08, No Iterations 24
time step continuity errors : sum local = 1.8936548e-09, global = -3.1895978e-10, cumulative = 4.6322304e-07
amgSolver:  Solving for p, Initial residual = 0.080815085, Final residual = 6.9508387e-08, No Iterations 24
time step continuity errors : sum local = 1.2950742e-09, global = 2.1813732e-10, cumulative = 4.6344118e-07
amgSolver:  Solving for p, Initial residual = 0.031454433, Final residual = 9.8097456e-08, No Iterations 18
time step continuity errors : sum local = 1.8637452e-09, global = -3.0744712e-10, cumulative = 4.6313373e-07
amgSolver:  Solving for p, Initial residual = 0.017292129, Final residual = 6.0370284e-08, No Iterations 19
time step continuity errors : sum local = 1.1462728e-09, global = 1.9301527e-10, cumulative = 4.6332674e-07
ExecutionTime = 81.54 s  ClockTime = 82 s

forces output:
    forces(pressure, viscous)((395.62315 163.73798 -3.4635815e-16) (4.9542561 1.9905839 1.335494e-16))
    moment(pressure, viscous)((-8.186899 19.781158 -2.3212171e-09) (-0.099529195 0.24771281 0.051369446))

forceCoeffs output:
    Cd = 801.15482
    Cl = 331.45713
    Cm = 0

Time = 0.998

Courant Number mean: 1.5276036 max: 13.540855 velocity magnitude: 255.5049
smoothSolver:  Solving for Ux, Initial residual = 0.028073221, Final residual = 7.3760369e-08, No Iterations 27
smoothSolver:  Solving for Uy, Initial residual = 0.077490103, Final residual = 8.0991036e-08, No Iterations 29
amgSolver:  Solving for p, Initial residual = 0.14308152, Final residual = 6.568222e-08, No Iterations 25
time step continuity errors : sum local = 1.2707285e-09, global = -1.9789119e-10, cumulative = 4.6312885e-07
amgSolver:  Solving for p, Initial residual = 0.082654551, Final residual = 8.1573644e-08, No Iterations 24
time step continuity errors : sum local = 1.5326271e-09, global = 2.3868221e-10, cumulative = 4.6336754e-07
amgSolver:  Solving for p, Initial residual = 0.03303978, Final residual = 7.1858879e-08, No Iterations 19
time step continuity errors : sum local = 1.3746718e-09, global = -2.1375084e-10, cumulative = 4.6315378e-07
amgSolver:  Solving for p, Initial residual = 0.018004382, Final residual = 7.1271508e-08, No Iterations 19
time step continuity errors : sum local = 1.3637669e-09, global = 2.1225684e-10, cumulative = 4.6336604e-07
ExecutionTime = 81.57 s  ClockTime = 82 s

forces output:
    forces(pressure, viscous)((389.07559 99.993708 -3.6106468e-16) (4.9604817 1.5564906 1.3548676e-16))
    moment(pressure, viscous)((-4.9996854 19.453779 -1.9301449e-09) (-0.077824531 0.24802409 0.035663402))

forceCoeffs output:
    Cd = 788.07214
    Cl = 203.1004
    Cm = 0

Time = 0.9985

Courant Number mean: 1.5284354 max: 13.740459 velocity magnitude: 252.07375
smoothSolver:  Solving for Ux, Initial residual = 0.028315867, Final residual = 9.0041536e-08, No Iterations 28
smoothSolver:  Solving for Uy, Initial residual = 0.077024854, Final residual = 7.0758718e-08, No Iterations 31
amgSolver:  Solving for p, Initial residual = 0.13552993, Final residual = 6.1601398e-08, No Iterations 25
time step continuity errors : sum local = 1.1935906e-09, global = 2.0208209e-10, cumulative = 4.6356812e-07
amgSolver:  Solving for p, Initial residual = 0.081653834, Final residual = 7.2146066e-08, No Iterations 24
time step continuity errors : sum local = 1.363863e-09, global = 2.2703449e-10, cumulative = 4.6379516e-07
amgSolver:  Solving for p, Initial residual = 0.032602308, Final residual = 8.2230553e-08, No Iterations 18
time step continuity errors : sum local = 1.5771573e-09, global = 2.6288161e-10, cumulative = 4.6405804e-07
amgSolver:  Solving for p, Initial residual = 0.018408071, Final residual = 8.3858666e-08, No Iterations 18
time step continuity errors : sum local = 1.6135493e-09, global = 2.6840348e-10, cumulative = 4.6432644e-07
ExecutionTime = 81.61 s  ClockTime = 82 s

forces output:
    forces(pressure, viscous)((379.57307 25.837538 -3.855375e-16) (4.9537001 1.003064 1.3488763e-16))
    moment(pressure, viscous)((-1.2918769 18.978654 -1.1296448e-09) (-0.050153202 0.24768501 0.017470739))

forceCoeffs output:
    Cd = 769.05354
    Cl = 53.681203
    Cm = 0

Time = 0.999

Courant Number mean: 1.5288385 max: 13.728737 velocity magnitude: 247.81561
smoothSolver:  Solving for Ux, Initial residual = 0.028706277, Final residual = 8.2893124e-08, No Iterations 29
smoothSolver:  Solving for Uy, Initial residual = 0.07802803, Final residual = 6.9587548e-08, No Iterations 33
amgSolver:  Solving for p, Initial residual = 0.14409378, Final residual = 9.3526397e-08, No Iterations 24
time step continuity errors : sum local = 1.8159982e-09, global = -3.0668163e-10, cumulative = 4.6401976e-07
amgSolver:  Solving for p, Initial residual = 0.087497652, Final residual = 6.7675105e-08, No Iterations 24
time step continuity errors : sum local = 1.265251e-09, global = 2.1367977e-10, cumulative = 4.6423344e-07
amgSolver:  Solving for p, Initial residual = 0.034122034, Final residual = 8.0301412e-08, No Iterations 19
time step continuity errors : sum local = 1.532725e-09, global = 2.5882649e-10, cumulative = 4.6449227e-07
amgSolver:  Solving for p, Initial residual = 0.019862871, Final residual = 6.4740487e-08, No Iterations 18
time step continuity errors : sum local = 1.2406824e-09, global = 2.0950665e-10, cumulative = 4.6470177e-07
ExecutionTime = 81.65 s  ClockTime = 82 s

forces output:
    forces(pressure, viscous)((369.4964 -49.434537 -4.105273e-16) (4.9432519 0.38564713 1.3481915e-16))
    moment(pressure, viscous)((2.4717269 18.47482 -3.0691653e-10) (-0.019282356 0.24716259 0.00044511241))

forceCoeffs output:
    Cd = 748.8793
    Cl = -98.097781
    Cm = 0

Time = 0.9995

Courant Number mean: 1.52833 max: 13.725585 velocity magnitude: 242.96351
smoothSolver:  Solving for Ux, Initial residual = 0.029203094, Final residual = 9.7097888e-08, No Iterations 29
smoothSolver:  Solving for Uy, Initial residual = 0.079750329, Final residual = 7.5782027e-08, No Iterations 34
amgSolver:  Solving for p, Initial residual = 0.13927529, Final residual = 8.1696138e-08, No Iterations 24
time step continuity errors : sum local = 1.5744557e-09, global = -2.974858e-10, cumulative = 4.6440429e-07
amgSolver:  Solving for p, Initial residual = 0.08739861, Final residual = 5.9679817e-08, No Iterations 24
time step continuity errors : sum local = 1.1137989e-09, global = 2.1045043e-10, cumulative = 4.6461474e-07
amgSolver:  Solving for p, Initial residual = 0.033523263, Final residual = 6.511077e-08, No Iterations 19
time step continuity errors : sum local = 1.2390266e-09, global = 2.3409049e-10, cumulative = 4.6484883e-07
amgSolver:  Solving for p, Initial residual = 0.019508457, Final residual = 6.341989e-08, No Iterations 17
time step continuity errors : sum local = 1.2142649e-09, global = -2.2908077e-10, cumulative = 4.6461975e-07
ExecutionTime = 81.69 s  ClockTime = 82 s

forces output:
    forces(pressure, viscous)((360.69852 -119.42321 -4.3599615e-16) (4.9259611 -0.26706706 1.3584574e-16))
    moment(pressure, viscous)((5.9711607 18.034926 3.3596975e-10) (0.013353353 0.24629805 -0.018099446))

forceCoeffs output:
    Cd = 731.24895
    Cl = -239.38056
    Cm = 0

Time = 1

Courant Number mean: 1.5266311 max: 14.565649 velocity magnitude: 241.29031
smoothSolver:  Solving for Ux, Initial residual = 0.029617139, Final residual = 6.7630294e-08, No Iterations 30
smoothSolver:  Solving for Uy, Initial residual = 0.081990064, Final residual = 6.7836651e-08, No Iterations 35
amgSolver:  Solving for p, Initial residual = 0.14040964, Final residual = 7.8252449e-08, No Iterations 24
time step continuity errors : sum local = 1.507481e-09, global = -3.0495867e-10, cumulative = 4.6431479e-07
amgSolver:  Solving for p, Initial residual = 0.08543665, Final residual = 9.4001484e-08, No Iterations 23
time step continuity errors : sum local = 1.7664556e-09, global = 3.5735863e-10, cumulative = 4.6467215e-07
amgSolver:  Solving for p, Initial residual = 0.032552115, Final residual = 7.8443099e-08, No Iterations 19
time step continuity errors : sum local = 1.4905182e-09, global = 3.0150553e-10, cumulative = 4.6497365e-07
amgSolver:  Solving for p, Initial residual = 0.018492826, Final residual = 9.2560667e-08, No Iterations 17
time step continuity errors : sum local = 1.7742045e-09, global = -3.5863588e-10, cumulative = 4.6461502e-07
ExecutionTime = 81.74 s  ClockTime = 83 s

forces output:
    forces(pressure, viscous)((355.57853 -180.5331 -4.5750448e-16) (4.9113908 -0.8980974 1.3546035e-16))
    moment(pressure, viscous)((9.0266552 17.778926 1.0144346e-09) (0.04490487 0.24556954 -0.034848852))

forceCoeffs output:
    Cd = 720.97983
    Cl = -362.8624
    Cm = 0

pressureTools pressureTools1 output:
    writing field static(p)_coeff

End

