/*---------------------------------------------------------------------------*\
| =========                 |                                                 |
| \\      /  F ield         | foam-extend: Open Source CFD                    |
|  \\    /   O peration     | Version:     4.1                                |
|   \\  /    A nd           | Web:         http://www.foam-extend.org         |
|    \\/     M anipulation  | For copyright notice see file Copyright         |
\*---------------------------------------------------------------------------*/
Build  : 4.1-76ec96ae2dcb
Exec   : icoOversetFoam
Date   : Apr 03 2020
Time   : 11:52:30
Host   : "aoba"
PID    : 8817
CtrlDict : "/home/mimi/foam/mimi-4.1/run/cylinder-blockmesh-tut-merge-150ms/system/controlDict"
Case   : /home/mimi/foam/mimi-4.1/run/cylinder-blockmesh-tut-merge-150ms
nProcs : 1
sigFpe : Enabling floating point exception trapping (FOAM_SIGFPE).
allowSystemOperations : Disallowing user-supplied system call operations

// * * * * * * * * * * * * * * * * * * * * * * * * * * * * * * * * * * * * * //
Create time

Create mesh for time = 0


PISO: Operating solver in PISO mode

Creating oversetMesh
Selecting overset fringe type overlap
Selecting overset fringe type faceCells
Found 1 active overset interpolation schemes.

Selecting overset interpolation type injection
Updating iteration for overset region: volume
Region internal: 150 triangles in hole cutting
Region volume: 0 triangles in hole cutting
Overlap fringe iteration: 1 for region: volume
Cumulative suitable pairs: 32, total number of pairs: 32 (100%)
Converted 0 acceptors to holes.
Finished assembling overlap fringe.
Updating iteration for overset region: internal
Number of acceptor cells: 107
Number of donor cells: 107
Number of hole cells: 80
Checking donor-acceptor assembly
Reading transportProperties

Reading field p

Reading field U

Reading/calculating face flux field phi

Reading field rAU if present


Starting time loop

Time = 0.0005

Courant Number mean: 1.3536616 max: 15.986254 velocity magnitude: 284.98329
In manipulateMatrix: true bou: 123 int: 0
smoothSolver:  Solving for Ux, Initial residual = 0.30001149, Final residual = 8.5039051e-08, No Iterations 62
smoothSolver:  Solving for Uy, Initial residual = 0.32262361, Final residual = 9.9965619e-08, No Iterations 61
In manipulateMatrix: true bou: 123 int: 0
amgSolver:  Solving for p, Initial residual = 0.99931267, Final residual = 9.6281632e-08, No Iterations 21
Overset time step continuity errors : max local = 6.1824861e-05, sum local = 8.4084923e-10, global = 6.2689943e-11, cumulative = 6.2689943e-11
In manipulateMatrix: true bou: 123 int: 0
amgSolver:  Solving for p, Initial residual = 0.20389852, Final residual = 7.2599252e-08, No Iterations 19
Overset time step continuity errors : max local = 0.00053946152, sum local = 3.0889152e-09, global = 1.8137398e-09, cumulative = 1.8764297e-09
In manipulateMatrix: true bou: 123 int: 0
amgSolver:  Solving for p, Initial residual = 0.17965365, Final residual = 8.9095974e-08, No Iterations 29
Overset time step continuity errors : max local = 4.8642228e-05, sum local = 1.2421642e-09, global = 5.6391486e-10, cumulative = 2.4403446e-09
In manipulateMatrix: true bou: 123 int: 0
amgSolver:  Solving for p, Initial residual = 0.12479266, Final residual = 6.0117944e-08, No Iterations 24
Overset time step continuity errors : max local = 9.4017032e-05, sum local = 6.5346495e-10, global = 5.2794835e-10, cumulative = 2.9682929e-09
ExecutionTime = 0.46 s  ClockTime = 0 s

forces output:
    forces(pressure, viscous)((25.42717 3.7216387e-06 2.2837043e-17) (0.24739306 1.5641151e-09 -2.6020206e-21))
    moment(pressure, viscous)((-3.7216387e-08 0.2542717 -2.3458535e-13) (-1.5641151e-11 0.0024739306 -3.0915021e-11))

Time = 0.001

Courant Number mean: 1.3514901 max: 12.861962 velocity magnitude: 229.28712
In manipulateMatrix: true bou: 123 int: 0
smoothSolver:  Solving for Ux, Initial residual = 0.061499867, Final residual = 9.2099017e-08, No Iterations 51
smoothSolver:  Solving for Uy, Initial residual = 0.058998752, Final residual = 9.3887143e-08, No Iterations 50
In manipulateMatrix: true bou: 123 int: 0
amgSolver:  Solving for p, Initial residual = 0.29120796, Final residual = 7.3086993e-08, No Iterations 28
Overset time step continuity errors : max local = 0.00010917618, sum local = 8.203217e-10, global = 6.1136893e-10, cumulative = 3.5796618e-09
In manipulateMatrix: true bou: 123 int: 0
amgSolver:  Solving for p, Initial residual = 0.1695681, Final residual = 6.6130148e-08, No Iterations 27
Overset time step continuity errors : max local = 2.2407519e-05, sum local = 7.735188e-10, global = -5.7654876e-10, cumulative = 3.0031131e-09
In manipulateMatrix: true bou: 123 int: 0
amgSolver:  Solving for p, Initial residual = 0.052242224, Final residual = 9.5795679e-08, No Iterations 24
Overset time step continuity errors : max local = 2.629425e-05, sum local = 9.519765e-10, global = -7.1030194e-10, cumulative = 2.2928112e-09
In manipulateMatrix: true bou: 123 int: 0
amgSolver:  Solving for p, Initial residual = 0.025948562, Final residual = 6.7910677e-08, No Iterations 22
Overset time step continuity errors : max local = 2.2763536e-05, sum local = 6.6650267e-10, global = -5.0290943e-10, cumulative = 1.7899017e-09
ExecutionTime = 0.73 s  ClockTime = 1 s

forces output:
    forces(pressure, viscous)((22.889525 5.2803375e-06 1.9698336e-17) (0.23724801 2.1268765e-09 -6.064629e-22))
    moment(pressure, viscous)((-5.2803375e-08 0.22889525 1.4357851e-13) (-2.1268765e-11 0.0023724801 -4.0530289e-10))

Time = 0.0015

Courant Number mean: 1.3478428 max: 13.243311 velocity magnitude: 236.08534
In manipulateMatrix: true bou: 123 int: 0
smoothSolver:  Solving for Ux, Initial residual = 0.039817627, Final residual = 8.3634944e-08, No Iterations 49
smoothSolver:  Solving for Uy, Initial residual = 0.038515634, Final residual = 9.6395174e-08, No Iterations 47
In manipulateMatrix: true bou: 123 int: 0
amgSolver:  Solving for p, Initial residual = 0.15591126, Final residual = 6.4598727e-08, No Iterations 29
Overset time step continuity errors : max local = 1.8333496e-05, sum local = 6.4546003e-10, global = -4.7270254e-10, cumulative = 1.3171992e-09
In manipulateMatrix: true bou: 123 int: 0
amgSolver:  Solving for p, Initial residual = 0.090634581, Final residual = 9.0434386e-08, No Iterations 27
Overset time step continuity errors : max local = 0.00012218889, sum local = 9.6396508e-10, global = 7.0587068e-10, cumulative = 2.0230699e-09
In manipulateMatrix: true bou: 123 int: 0
amgSolver:  Solving for p, Initial residual = 0.020954412, Final residual = 6.6896642e-08, No Iterations 17
Overset time step continuity errors : max local = 1.3891116e-05, sum local = 6.2518951e-10, global = -4.5443992e-10, cumulative = 1.5686299e-09
In manipulateMatrix: true bou: 123 int: 0
amgSolver:  Solving for p, Initial residual = 0.0096873689, Final residual = 6.6563711e-08, No Iterations 15
Overset time step continuity errors : max local = 7.9524953e-05, sum local = 6.2461166e-10, global = 4.6523266e-10, cumulative = 2.0338626e-09
ExecutionTime = 0.96 s  ClockTime = 1 s

forces output:
    forces(pressure, viscous)((27.257751 5.4335237e-06 1.9016885e-17) (0.22646879 3.0721084e-09 -3.4455145e-21))
    moment(pressure, viscous)((-5.4335237e-08 0.27257751 2.6859786e-13) (-3.0721084e-11 0.0022646879 -7.2977992e-10))

Time = 0.002

Courant Number mean: 1.3477739 max: 13.374776 velocity magnitude: 238.43014
In manipulateMatrix: true bou: 123 int: 0
smoothSolver:  Solving for Ux, Initial residual = 0.032702299, Final residual = 9.7315814e-08, No Iterations 46
smoothSolver:  Solving for Uy, Initial residual = 0.030866605, Final residual = 7.9356252e-08, No Iterations 46
In manipulateMatrix: true bou: 123 int: 0
amgSolver:  Solving for p, Initial residual = 0.12258427, Final residual = 6.9878092e-08, No Iterations 26
Overset time step continuity errors : max local = 1.102422e-05, sum local = 6.553016e-10, global = -4.686556e-10, cumulative = 1.565207e-09
In manipulateMatrix: true bou: 123 int: 0
amgSolver:  Solving for p, Initial residual = 0.06563693, Final residual = 6.2926504e-08, No Iterations 25
Overset time step continuity errors : max local = 8.2360635e-05, sum local = 6.1094118e-10, global = 4.3694396e-10, cumulative = 2.002151e-09
In manipulateMatrix: true bou: 123 int: 0
amgSolver:  Solving for p, Initial residual = 0.014309622, Final residual = 6.9710559e-08, No Iterations 20
Overset time step continuity errors : max local = 8.7298337e-05, sum local = 6.2755471e-10, global = 4.8435514e-10, cumulative = 2.4865061e-09
In manipulateMatrix: true bou: 123 int: 0
amgSolver:  Solving for p, Initial residual = 0.0067529382, Final residual = 8.7620304e-08, No Iterations 17
Overset time step continuity errors : max local = 1.5601795e-05, sum local = 7.9612524e-10, global = -5.6927371e-10, cumulative = 1.9172324e-09
ExecutionTime = 1.13 s  ClockTime = 1 s

forces output:
    forces(pressure, viscous)((30.119188 1.0149781e-05 1.8508721e-17) (0.21757244 4.0538515e-09 6.0693207e-21))
    moment(pressure, viscous)((-1.0149781e-07 0.30119188 6.4579397e-13) (-4.0538515e-11 0.0021757244 -9.0882581e-10))

Time = 0.0025

Courant Number mean: 1.348988 max: 13.438722 velocity magnitude: 239.5701
In manipulateMatrix: true bou: 123 int: 0
smoothSolver:  Solving for Ux, Initial residual = 0.030661487, Final residual = 7.622961e-08, No Iterations 46
smoothSolver:  Solving for Uy, Initial residual = 0.02761226, Final residual = 7.5890493e-08, No Iterations 46
In manipulateMatrix: true bou: 123 int: 0
amgSolver:  Solving for p, Initial residual = 0.095577088, Final residual = 9.93933e-08, No Iterations 17
Overset time step continuity errors : max local = 7.868706e-05, sum local = 9.2188329e-10, global = -1.2849112e-10, cumulative = 1.7887413e-09
In manipulateMatrix: true bou: 123 int: 0
amgSolver:  Solving for p, Initial residual = 0.055713582, Final residual = 9.941209e-08, No Iterations 22
Overset time step continuity errors : max local = 1.461502e-05, sum local = 9.1184644e-10, global = -4.5735656e-10, cumulative = 1.3313847e-09
In manipulateMatrix: true bou: 123 int: 0
amgSolver:  Solving for p, Initial residual = 0.010806813, Final residual = 8.2507962e-08, No Iterations 17
Overset time step continuity errors : max local = 2.2986031e-05, sum local = 7.5489801e-10, global = -5.2590443e-10, cumulative = 8.0548028e-10
In manipulateMatrix: true bou: 123 int: 0
amgSolver:  Solving for p, Initial residual = 0.0052067976, Final residual = 6.9140129e-08, No Iterations 19
Overset time step continuity errors : max local = 1.5691261e-05, sum local = 6.3760186e-10, global = -4.5587727e-10, cumulative = 3.4960301e-10
ExecutionTime = 1.28 s  ClockTime = 1 s

forces output:
    forces(pressure, viscous)((31.791369 1.0357722e-05 1.8198612e-17) (0.21087162 4.0779619e-09 -4.927387e-20))
    moment(pressure, viscous)((-1.0357722e-07 0.31791369 9.5048188e-13) (-4.0779618e-11 0.0021087162 -9.3594379e-10))

Time = 0.003

Courant Number mean: 1.3506537 max: 13.475261 velocity magnitude: 240.22147
In manipulateMatrix: true bou: 123 int: 0
smoothSolver:  Solving for Ux, Initial residual = 0.028958147, Final residual = 9.1535852e-08, No Iterations 45
smoothSolver:  Solving for Uy, Initial residual = 0.024337372, Final residual = 9.1839626e-08, No Iterations 45
In manipulateMatrix: true bou: 123 int: 0
amgSolver:  Solving for p, Initial residual = 0.075976992, Final residual = 7.1952294e-08, No Iterations 26
Overset time step continuity errors : max local = 0.00011100632, sum local = 6.7415923e-10, global = 4.643334e-10, cumulative = 8.1393641e-10
In manipulateMatrix: true bou: 123 int: 0
amgSolver:  Solving for p, Initial residual = 0.043259959, Final residual = 9.0507771e-08, No Iterations 24
Overset time step continuity errors : max local = 2.8180367e-05, sum local = 8.8845054e-10, global = -6.1309825e-10, cumulative = 2.0083817e-10
In manipulateMatrix: true bou: 123 int: 0
amgSolver:  Solving for p, Initial residual = 0.0088250627, Final residual = 7.604954e-08, No Iterations 20
Overset time step continuity errors : max local = 2.2846486e-05, sum local = 7.1549865e-10, global = -4.895614e-10, cumulative = -2.8872323e-10
In manipulateMatrix: true bou: 123 int: 0
amgSolver:  Solving for p, Initial residual = 0.0042434071, Final residual = 8.917716e-08, No Iterations 17
Overset time step continuity errors : max local = 0.00013049772, sum local = 8.3857565e-10, global = 5.6761401e-10, cumulative = 2.7889078e-10
ExecutionTime = 1.48 s  ClockTime = 1 s

forces output:
    forces(pressure, viscous)((32.653533 9.921917e-06 1.7968382e-17) (0.20631603 3.880966e-09 -3.2398294e-20))
    moment(pressure, viscous)((-9.921917e-08 0.32653533 1.1277992e-12) (-3.880966e-11 0.0020631603 -9.1808936e-10))

Time = 0.0035

Courant Number mean: 1.3522198 max: 13.494191 velocity magnitude: 240.55893
In manipulateMatrix: true bou: 123 int: 0
smoothSolver:  Solving for Ux, Initial residual = 0.026423321, Final residual = 7.7381605e-08, No Iterations 45
smoothSolver:  Solving for Uy, Initial residual = 0.020759237, Final residual = 7.6812583e-08, No Iterations 45
In manipulateMatrix: true bou: 123 int: 0
amgSolver:  Solving for p, Initial residual = 0.065890053, Final residual = 7.9325002e-08, No Iterations 25
Overset time step continuity errors : max local = 0.00013772562, sum local = 7.5088248e-10, global = 5.1454299e-10, cumulative = 7.9343377e-10
In manipulateMatrix: true bou: 123 int: 0
amgSolver:  Solving for p, Initial residual = 0.035608876, Final residual = 8.1996588e-08, No Iterations 24
Overset time step continuity errors : max local = 1.6962591e-05, sum local = 8.2548205e-10, global = -5.6669675e-10, cumulative = 2.2673702e-10
In manipulateMatrix: true bou: 123 int: 0
amgSolver:  Solving for p, Initial residual = 0.0072528497, Final residual = 6.9371585e-08, No Iterations 20
Overset time step continuity errors : max local = 0.00012391651, sum local = 6.6674469e-10, global = 4.6332398e-10, cumulative = 6.90061e-10
In manipulateMatrix: true bou: 123 int: 0
amgSolver:  Solving for p, Initial residual = 0.0037929997, Final residual = 6.6586885e-08, No Iterations 19
Overset time step continuity errors : max local = 1.56168e-05, sum local = 6.4023415e-10, global = -4.4382896e-10, cumulative = 2.4623204e-10
ExecutionTime = 1.68 s  ClockTime = 2 s

forces output:
    forces(pressure, viscous)((33.265652 2.0888663e-06 1.7764259e-17) (0.20331159 2.1940153e-09 -1.3566651e-20))
    moment(pressure, viscous)((-2.0888663e-08 0.33265652 1.3333078e-12) (-2.1940153e-11 0.0020331159 -8.2838117e-10))

Time = 0.004

Courant Number mean: 1.3536844 max: 13.502887 velocity magnitude: 240.71395
In manipulateMatrix: true bou: 123 int: 0
smoothSolver:  Solving for Ux, Initial residual = 0.024063961, Final residual = 8.8518193e-08, No Iterations 44
smoothSolver:  Solving for Uy, Initial residual = 0.017830761, Final residual = 8.5466956e-08, No Iterations 44
In manipulateMatrix: true bou: 123 int: 0
amgSolver:  Solving for p, Initial residual = 0.056768507, Final residual = 7.9170184e-08, No Iterations 24
Overset time step continuity errors : max local = 0.00015598553, sum local = 7.6109787e-10, global = 5.326559e-10, cumulative = 7.7888795e-10
In manipulateMatrix: true bou: 123 int: 0
amgSolver:  Solving for p, Initial residual = 0.029865288, Final residual = 8.6644852e-08, No Iterations 23
Overset time step continuity errors : max local = 2.4909632e-05, sum local = 8.8242895e-10, global = -6.1758538e-10, cumulative = 1.6130257e-10
In manipulateMatrix: true bou: 123 int: 0
amgSolver:  Solving for p, Initial residual = 0.0064144598, Final residual = 9.6739157e-08, No Iterations 19
Overset time step continuity errors : max local = 2.7360623e-05, sum local = 9.3892481e-10, global = -6.568172e-10, cumulative = -4.9551463e-10
In manipulateMatrix: true bou: 123 int: 0
amgSolver:  Solving for p, Initial residual = 0.0032617208, Final residual = 8.603229e-08, No Iterations 18
Overset time step continuity errors : max local = 2.4225225e-05, sum local = 8.3549042e-10, global = -5.8595743e-10, cumulative = -1.0814721e-09
ExecutionTime = 1.85 s  ClockTime = 2 s

forces output:
    forces(pressure, viscous)((33.782627 -2.7138915e-06 1.7590296e-17) (0.20152387 -3.7113722e-09 -2.6636015e-21))
    moment(pressure, viscous)((2.7138915e-08 0.33782627 1.7447033e-12) (3.7113723e-11 0.0020152387 -7.201367e-10))

Time = 0.0045

Courant Number mean: 1.3549236 max: 13.506746 velocity magnitude: 240.78274
In manipulateMatrix: true bou: 123 int: 0
smoothSolver:  Solving for Ux, Initial residual = 0.021870478, Final residual = 7.4328808e-08, No Iterations 44
smoothSolver:  Solving for Uy, Initial residual = 0.015369044, Final residual = 9.3635448e-08, No Iterations 43
In manipulateMatrix: true bou: 123 int: 0
amgSolver:  Solving for p, Initial residual = 0.049457359, Final residual = 9.3229982e-08, No Iterations 24
Overset time step continuity errors : max local = 0.00017929488, sum local = 9.0747806e-10, global = 6.3349786e-10, cumulative = -4.479742e-10
In manipulateMatrix: true bou: 123 int: 0
amgSolver:  Solving for p, Initial residual = 0.024850098, Final residual = 8.4784919e-08, No Iterations 23
Overset time step continuity errors : max local = 3.238127e-05, sum local = 8.7386028e-10, global = -5.9241157e-10, cumulative = -1.0403858e-09
In manipulateMatrix: true bou: 123 int: 0
amgSolver:  Solving for p, Initial residual = 0.0052192117, Final residual = 6.1836658e-08, No Iterations 17
Overset time step continuity errors : max local = 2.561459e-05, sum local = 6.0646335e-10, global = -4.0077012e-10, cumulative = -1.4411559e-09
In manipulateMatrix: true bou: 123 int: 0
amgSolver:  Solving for p, Initial residual = 0.0026538138, Final residual = 8.6496432e-08, No Iterations 17
Overset time step continuity errors : max local = 3.0419474e-05, sum local = 8.4952051e-10, global = -5.9498697e-10, cumulative = -2.0361429e-09
ExecutionTime = 2.01 s  ClockTime = 2 s

forces output:
    forces(pressure, viscous)((34.180053 -1.1190244e-05 1.7448973e-17) (0.2004522 -1.0916653e-08 4.8230326e-21))
    moment(pressure, viscous)((1.1190244e-07 0.34180053 2.4809139e-12) (1.0916653e-10 0.002004522 -6.8767897e-10))

Time = 0.005

Courant Number mean: 1.3559429 max: 13.509052 velocity magnitude: 240.82386
In manipulateMatrix: true bou: 123 int: 0
smoothSolver:  Solving for Ux, Initial residual = 0.019907675, Final residual = 8.5335502e-08, No Iterations 43
smoothSolver:  Solving for Uy, Initial residual = 0.01318258, Final residual = 7.5506833e-08, No Iterations 43
In manipulateMatrix: true bou: 123 int: 0
amgSolver:  Solving for p, Initial residual = 0.042356695, Final residual = 9.8890368e-08, No Iterations 23
Overset time step continuity errors : max local = 0.00017065253, sum local = 9.7611161e-10, global = 6.6871349e-10, cumulative = -1.3674294e-09
In manipulateMatrix: true bou: 123 int: 0
amgSolver:  Solving for p, Initial residual = 0.020950124, Final residual = 6.3283466e-08, No Iterations 23
Overset time step continuity errors : max local = 1.9268782e-05, sum local = 6.5800434e-10, global = -4.4974162e-10, cumulative = -1.817171e-09
In manipulateMatrix: true bou: 123 int: 0
amgSolver:  Solving for p, Initial residual = 0.0043068796, Final residual = 7.309349e-08, No Iterations 18
Overset time step continuity errors : max local = 2.1059714e-05, sum local = 7.2530112e-10, global = -4.9673688e-10, cumulative = -2.3139079e-09
In manipulateMatrix: true bou: 123 int: 0
amgSolver:  Solving for p, Initial residual = 0.0021753406, Final residual = 8.3463441e-08, No Iterations 17
Overset time step continuity errors : max local = 2.3031427e-05, sum local = 8.2903979e-10, global = -5.7065808e-10, cumulative = -2.8845659e-09
ExecutionTime = 2.18 s  ClockTime = 2 s

forces output:
    forces(pressure, viscous)((34.549281 -2.2354295e-05 1.733666e-17) (0.1997319 -2.2036988e-08 1.1199947e-20))
    moment(pressure, viscous)((2.2354295e-07 0.34549281 3.3598762e-12) (2.2036988e-10 0.001997319 -7.6550959e-10))

Time = 0.0055

Courant Number mean: 1.3568147 max: 13.512312 velocity magnitude: 240.88198
In manipulateMatrix: true bou: 123 int: 0
smoothSolver:  Solving for Ux, Initial residual = 0.018271173, Final residual = 7.5365751e-08, No Iterations 43
smoothSolver:  Solving for Uy, Initial residual = 0.011339253, Final residual = 8.3257229e-08, No Iterations 42
In manipulateMatrix: true bou: 123 int: 0
amgSolver:  Solving for p, Initial residual = 0.036415155, Final residual = 7.6152822e-08, No Iterations 24
Overset time step continuity errors : max local = 0.00012443826, sum local = 7.5974951e-10, global = 5.2504509e-10, cumulative = -2.3595209e-09
In manipulateMatrix: true bou: 123 int: 0
amgSolver:  Solving for p, Initial residual = 0.017064331, Final residual = 8.9677977e-08, No Iterations 22
Overset time step continuity errors : max local = 2.9450647e-05, sum local = 9.3822805e-10, global = -6.4619028e-10, cumulative = -3.0057111e-09
In manipulateMatrix: true bou: 123 int: 0
amgSolver:  Solving for p, Initial residual = 0.0035175647, Final residual = 8.0424754e-08, No Iterations 18
Overset time step continuity errors : max local = 2.4079259e-05, sum local = 8.0530444e-10, global = -5.5783865e-10, cumulative = -3.5635498e-09
In manipulateMatrix: true bou: 123 int: 0
amgSolver:  Solving for p, Initial residual = 0.0017719265, Final residual = 7.9645486e-08, No Iterations 16
Overset time step continuity errors : max local = 2.5073364e-05, sum local = 7.989871e-10, global = -5.6092116e-10, cumulative = -4.124471e-09
ExecutionTime = 2.34 s  ClockTime = 2 s

forces output:
    forces(pressure, viscous)((34.888507 -3.7221197e-05 1.7255535e-17) (0.19918166 -3.8666651e-08 1.7767092e-20))
    moment(pressure, viscous)((3.7221197e-07 0.34888507 4.6253342e-12) (3.8666651e-10 0.0019918166 -1.0202477e-09))

Time = 0.006

Courant Number mean: 1.3575836 max: 13.518401 velocity magnitude: 240.99052
In manipulateMatrix: true bou: 123 int: 0
smoothSolver:  Solving for Ux, Initial residual = 0.016928879, Final residual = 9.3717187e-08, No Iterations 42
smoothSolver:  Solving for Uy, Initial residual = 0.0097996238, Final residual = 9.4256429e-08, No Iterations 41
In manipulateMatrix: true bou: 123 int: 0
amgSolver:  Solving for p, Initial residual = 0.03128684, Final residual = 6.7546679e-08, No Iterations 24
Overset time step continuity errors : max local = 0.00011354123, sum local = 6.8294085e-10, global = 4.5446022e-10, cumulative = -3.6700107e-09
In manipulateMatrix: true bou: 123 int: 0
amgSolver:  Solving for p, Initial residual = 0.013868518, Final residual = 6.8467822e-08, No Iterations 23
Overset time step continuity errors : max local = 1.8475243e-05, sum local = 7.2499201e-10, global = -4.8498812e-10, cumulative = -4.1549988e-09
In manipulateMatrix: true bou: 123 int: 0
amgSolver:  Solving for p, Initial residual = 0.0028913836, Final residual = 6.8483152e-08, No Iterations 17
Overset time step continuity errors : max local = 3.5065618e-05, sum local = 6.969542e-10, global = -4.5779797e-10, cumulative = -4.6127968e-09
In manipulateMatrix: true bou: 123 int: 0
amgSolver:  Solving for p, Initial residual = 0.0014544114, Final residual = 8.113475e-08, No Iterations 12
Overset time step continuity errors : max local = 3.3688948e-05, sum local = 8.2715452e-10, global = -5.4814745e-10, cumulative = -5.1609443e-09
ExecutionTime = 2.5 s  ClockTime = 3 s

forces output:
    forces(pressure, viscous)((35.195336 -5.5023155e-05 1.7206503e-17) (0.19875801 -6.2856419e-08 2.3621546e-20))
    moment(pressure, viscous)((5.5023155e-07 0.35195336 6.5136308e-12) (6.2856419e-10 0.0019875801 -1.5578473e-09))

Time = 0.0065

Courant Number mean: 1.35829 max: 13.527817 velocity magnitude: 241.15837
In manipulateMatrix: true bou: 123 int: 0
smoothSolver:  Solving for Ux, Initial residual = 0.015752958, Final residual = 8.6077349e-08, No Iterations 42
smoothSolver:  Solving for Uy, Initial residual = 0.0085403102, Final residual = 8.1665495e-08, No Iterations 41
In manipulateMatrix: true bou: 123 int: 0
amgSolver:  Solving for p, Initial residual = 0.026837818, Final residual = 8.4139831e-08, No Iterations 23
Overset time step continuity errors : max local = 0.00015892259, sum local = 8.6368967e-10, global = 5.8786185e-10, cumulative = -4.5730824e-09
In manipulateMatrix: true bou: 123 int: 0
amgSolver:  Solving for p, Initial residual = 0.01137488, Final residual = 9.17156e-08, No Iterations 22
Overset time step continuity errors : max local = 2.0654108e-05, sum local = 9.8251299e-10, global = -6.7002411e-10, cumulative = -5.2431065e-09
In manipulateMatrix: true bou: 123 int: 0
amgSolver:  Solving for p, Initial residual = 0.0023995889, Final residual = 7.596504e-08, No Iterations 16
Overset time step continuity errors : max local = 2.5600301e-05, sum local = 7.8582783e-10, global = -5.9129881e-10, cumulative = -5.8344053e-09
In manipulateMatrix: true bou: 123 int: 0
amgSolver:  Solving for p, Initial residual = 0.0011949634, Final residual = 6.1187305e-08, No Iterations 14
Overset time step continuity errors : max local = 8.69104e-06, sum local = 6.3373382e-10, global = -5.0621114e-10, cumulative = -6.3406165e-09
ExecutionTime = 2.67 s  ClockTime = 3 s

forces output:
    forces(pressure, viscous)((35.435178 -8.0483484e-05 1.7181513e-17) (0.19846739 -9.3334153e-08 2.5413149e-20))
    moment(pressure, viscous)((8.0483484e-07 0.35435178 9.3143091e-12) (9.3334153e-10 0.0019846739 -2.384271e-09))

Time = 0.007

Courant Number mean: 1.3589547 max: 13.539776 velocity magnitude: 241.37157
In manipulateMatrix: true bou: 123 int: 0
smoothSolver:  Solving for Ux, Initial residual = 0.014623145, Final residual = 7.8029791e-08, No Iterations 42
smoothSolver:  Solving for Uy, Initial residual = 0.0074820058, Final residual = 9.6513581e-08, No Iterations 40
In manipulateMatrix: true bou: 123 int: 0
amgSolver:  Solving for p, Initial residual = 0.022752642, Final residual = 9.8878561e-08, No Iterations 21
Overset time step continuity errors : max local = 0.00015976613, sum local = 1.0272782e-09, global = 7.0905206e-10, cumulative = -5.6315644e-09
In manipulateMatrix: true bou: 123 int: 0
amgSolver:  Solving for p, Initial residual = 0.0095588597, Final residual = 8.0344044e-08, No Iterations 22
Overset time step continuity errors : max local = 2.3483447e-05, sum local = 8.6376948e-10, global = -5.7434169e-10, cumulative = -6.2059061e-09
In manipulateMatrix: true bou: 123 int: 0
amgSolver:  Solving for p, Initial residual = 0.0020686858, Final residual = 5.8089305e-08, No Iterations 16
Overset time step continuity errors : max local = 1.4275016e-05, sum local = 6.0706036e-10, global = -3.3010632e-10, cumulative = -6.5360124e-09
In manipulateMatrix: true bou: 123 int: 0
amgSolver:  Solving for p, Initial residual = 0.00098414514, Final residual = 7.7766102e-08, No Iterations 12
Overset time step continuity errors : max local = 4.1636564e-05, sum local = 8.1336434e-10, global = -6.3058772e-10, cumulative = -7.1666001e-09
ExecutionTime = 2.81 s  ClockTime = 3 s

forces output:
    forces(pressure, viscous)((35.67156 -0.000103936 1.7171769e-17) (0.19831213 -1.3398081e-07 2.4734205e-20))
    moment(pressure, viscous)((1.03936e-06 0.3567156 1.1898586e-11) (1.3398081e-09 0.0019831213 -3.7953767e-09))

Time = 0.0075

Courant Number mean: 1.3595379 max: 13.553454 velocity magnitude: 241.61541
In manipulateMatrix: true bou: 123 int: 0
smoothSolver:  Solving for Ux, Initial residual = 0.013640033, Final residual = 9.7602022e-08, No Iterations 41
smoothSolver:  Solving for Uy, Initial residual = 0.0065790865, Final residual = 8.839187e-08, No Iterations 40
In manipulateMatrix: true bou: 123 int: 0
amgSolver:  Solving for p, Initial residual = 0.018833417, Final residual = 7.7998592e-08, No Iterations 24
Overset time step continuity errors : max local = 0.00011762138, sum local = 8.1797622e-10, global = 4.285303e-10, cumulative = -6.7380698e-09
In manipulateMatrix: true bou: 123 int: 0
amgSolver:  Solving for p, Initial residual = 0.0077202452, Final residual = 6.9440713e-08, No Iterations 23
Overset time step continuity errors : max local = 9.8152892e-06, sum local = 7.5147391e-10, global = -4.1630063e-10, cumulative = -7.1543705e-09
In manipulateMatrix: true bou: 123 int: 0
amgSolver:  Solving for p, Initial residual = 0.0016924649, Final residual = 7.1944558e-08, No Iterations 15
Overset time step continuity errors : max local = 9.5486676e-06, sum local = 7.5878578e-10, global = -4.5626204e-10, cumulative = -7.6106325e-09
In manipulateMatrix: true bou: 123 int: 0
amgSolver:  Solving for p, Initial residual = 0.00079246991, Final residual = 7.6813467e-08, No Iterations 8
Overset time step continuity errors : max local = 9.7713211e-05, sum local = 8.1058016e-10, global = 6.3589921e-11, cumulative = -7.5470426e-09
ExecutionTime = 2.96 s  ClockTime = 3 s

forces output:
    forces(pressure, viscous)((35.853701 -0.00013062263 1.7181027e-17) (0.19823013 -1.776724e-07 2.3931617e-20))
    moment(pressure, viscous)((1.3062263e-06 0.35853701 1.4866126e-11) (1.776724e-09 0.0019823013 -5.3891938e-09))

Time = 0.008

Courant Number mean: 1.3600414 max: 13.567843 velocity magnitude: 241.87192
In manipulateMatrix: true bou: 123 int: 0
smoothSolver:  Solving for Ux, Initial residual = 0.012680769, Final residual = 8.7633993e-08, No Iterations 41
smoothSolver:  Solving for Uy, Initial residual = 0.005797448, Final residual = 8.101448e-08, No Iterations 40
In manipulateMatrix: true bou: 123 int: 0
amgSolver:  Solving for p, Initial residual = 0.015177052, Final residual = 8.9679913e-08, No Iterations 23
Overset time step continuity errors : max local = 0.00013424968, sum local = 9.4838809e-10, global = 4.9460454e-10, cumulative = -7.052438e-09
In manipulateMatrix: true bou: 123 int: 0
amgSolver:  Solving for p, Initial residual = 0.0061708127, Final residual = 8.959708e-08, No Iterations 22
Overset time step continuity errors : max local = 1.2834614e-05, sum local = 9.756453e-10, global = -5.4266694e-10, cumulative = -7.595105e-09
In manipulateMatrix: true bou: 123 int: 0
amgSolver:  Solving for p, Initial residual = 0.0013273898, Final residual = 7.9206918e-08, No Iterations 13
Overset time step continuity errors : max local = 9.6249208e-06, sum local = 8.424934e-10, global = -4.7645741e-10, cumulative = -8.0715624e-09
In manipulateMatrix: true bou: 123 int: 0
amgSolver:  Solving for p, Initial residual = 0.00063794053, Final residual = 8.6802212e-08, No Iterations 10
Overset time step continuity errors : max local = 0.00011414268, sum local = 9.2359615e-10, global = 5.8656336e-10, cumulative = -7.484999e-09
ExecutionTime = 3.11 s  ClockTime = 3 s

forces output:
    forces(pressure, viscous)((35.97972 -0.00016071657 1.7201686e-17) (0.19817932 -2.2335153e-07 2.3312074e-20))
    moment(pressure, viscous)((1.6071657e-06 0.3597972 1.7355217e-11) (2.2335153e-09 0.0019817932 -7.1438906e-09))

Time = 0.0085

Courant Number mean: 1.3604533 max: 13.581736 velocity magnitude: 242.11958
In manipulateMatrix: true bou: 123 int: 0
smoothSolver:  Solving for Ux, Initial residual = 0.011762346, Final residual = 7.6984923e-08, No Iterations 41
smoothSolver:  Solving for Uy, Initial residual = 0.0051145699, Final residual = 9.7896023e-08, No Iterations 39
In manipulateMatrix: true bou: 123 int: 0
amgSolver:  Solving for p, Initial residual = 0.012459931, Final residual = 9.1288547e-08, No Iterations 19
Overset time step continuity errors : max local = 0.00014706026, sum local = 9.7301425e-10, global = 6.775649e-10, cumulative = -6.8074341e-09
In manipulateMatrix: true bou: 123 int: 0
amgSolver:  Solving for p, Initial residual = 0.0050128458, Final residual = 6.4538613e-08, No Iterations 20
Overset time step continuity errors : max local = 2.2539462e-05, sum local = 7.0626684e-10, global = -4.8244181e-10, cumulative = -7.2898759e-09
In manipulateMatrix: true bou: 123 int: 0
amgSolver:  Solving for p, Initial residual = 0.0010700926, Final residual = 6.301801e-08, No Iterations 9
Overset time step continuity errors : max local = 9.3214491e-05, sum local = 6.7553751e-10, global = 3.3798793e-10, cumulative = -6.951888e-09
In manipulateMatrix: true bou: 123 int: 0
amgSolver:  Solving for p, Initial residual = 0.0005292244, Final residual = 9.4260746e-08, No Iterations 11
Overset time step continuity errors : max local = 0.00014971967, sum local = 1.010629e-09, global = 6.9680734e-10, cumulative = -6.2550807e-09
ExecutionTime = 3.24 s  ClockTime = 3 s

forces output:
    forces(pressure, viscous)((36.075574 -0.00018140806 1.722785e-17) (0.1981494 -2.6484565e-07 2.2786793e-20))
    moment(pressure, viscous)((1.8140806e-06 0.36075574 2.0077594e-11) (2.6484565e-09 0.001981494 -8.2267394e-09))

Time = 0.009

Courant Number mean: 1.360778 max: 13.594456 velocity magnitude: 242.34634
In manipulateMatrix: true bou: 123 int: 0
smoothSolver:  Solving for Ux, Initial residual = 0.010898609, Final residual = 9.0927064e-08, No Iterations 40
smoothSolver:  Solving for Uy, Initial residual = 0.0045223681, Final residual = 8.8141787e-08, No Iterations 39
In manipulateMatrix: true bou: 123 int: 0
amgSolver:  Solving for p, Initial residual = 0.010507153, Final residual = 8.815987e-08, No Iterations 19
Overset time step continuity errors : max local = 0.00014672364, sum local = 9.4680378e-10, global = 6.0272124e-10, cumulative = -5.6523594e-09
In manipulateMatrix: true bou: 123 int: 0
amgSolver:  Solving for p, Initial residual = 0.0041571885, Final residual = 7.7183049e-08, No Iterations 19
Overset time step continuity errors : max local = 2.7331934e-05, sum local = 8.4807373e-10, global = -5.7578319e-10, cumulative = -6.2281426e-09
In manipulateMatrix: true bou: 123 int: 0
amgSolver:  Solving for p, Initial residual = 0.00090859773, Final residual = 8.0711366e-08, No Iterations 12
Overset time step continuity errors : max local = 0.00013414417, sum local = 8.7168805e-10, global = 6.0958745e-10, cumulative = -5.6185552e-09
In manipulateMatrix: true bou: 123 int: 0
amgSolver:  Solving for p, Initial residual = 0.00044704046, Final residual = 6.8040267e-08, No Iterations 12
Overset time step continuity errors : max local = 0.00011180939, sum local = 7.3491516e-10, global = 5.0842198e-10, cumulative = -5.1101332e-09
ExecutionTime = 3.37 s  ClockTime = 3 s

forces output:
    forces(pressure, viscous)((36.15378 -0.00020329193 1.7255933e-17) (0.1981471 -3.0713021e-07 2.2232033e-20))
    moment(pressure, viscous)((2.0329193e-06 0.3615378 2.2324113e-11) (3.0713021e-09 0.001981471 -9.6664991e-09))

Time = 0.0095

Courant Number mean: 1.3610254 max: 13.605836 velocity magnitude: 242.54921
In manipulateMatrix: true bou: 123 int: 0
smoothSolver:  Solving for Ux, Initial residual = 0.010106699, Final residual = 7.8893632e-08, No Iterations 40
smoothSolver:  Solving for Uy, Initial residual = 0.0040146017, Final residual = 7.919335e-08, No Iterations 39
In manipulateMatrix: true bou: 123 int: 0
amgSolver:  Solving for p, Initial residual = 0.0090824995, Final residual = 9.8321021e-08, No Iterations 17
Overset time step continuity errors : max local = 2.7881351e-05, sum local = 1.0639785e-09, global = -7.2848793e-10, cumulative = -5.8386211e-09
In manipulateMatrix: true bou: 123 int: 0
amgSolver:  Solving for p, Initial residual = 0.0035348994, Final residual = 9.575477e-08, No Iterations 19
Overset time step continuity errors : max local = 1.2093234e-05, sum local = 1.0563089e-09, global = -5.5257848e-10, cumulative = -6.3911996e-09
In manipulateMatrix: true bou: 123 int: 0
amgSolver:  Solving for p, Initial residual = 0.00081831997, Final residual = 8.0782889e-08, No Iterations 15
Overset time step continuity errors : max local = 0.00014249094, sum local = 8.7896765e-10, global = 5.6884804e-10, cumulative = -5.8223516e-09
In manipulateMatrix: true bou: 123 int: 0
amgSolver:  Solving for p, Initial residual = 0.00040383038, Final residual = 8.7947182e-08, No Iterations 12
Overset time step continuity errors : max local = 0.00015085578, sum local = 9.5701343e-10, global = 6.5951018e-10, cumulative = -5.1628414e-09
ExecutionTime = 3.51 s  ClockTime = 4 s

forces output:
    forces(pressure, viscous)((36.233344 -0.00022431789 1.7284502e-17) (0.19817393 -3.4634765e-07 2.1806857e-20))
    moment(pressure, viscous)((2.2431789e-06 0.36233344 2.4350144e-11) (3.4634765e-09 0.0019817393 -1.1097968e-08))

Time = 0.01

Courant Number mean: 1.3612144 max: 13.616112 velocity magnitude: 242.7324
In manipulateMatrix: true bou: 123 int: 0
smoothSolver:  Solving for Ux, Initial residual = 0.0093962824, Final residual = 9.3888551e-08, No Iterations 39
smoothSolver:  Solving for Uy, Initial residual = 0.0035838351, Final residual = 9.6404273e-08, No Iterations 38
In manipulateMatrix: true bou: 123 int: 0
amgSolver:  Solving for p, Initial residual = 0.0079629898, Final residual = 9.8369995e-08, No Iterations 19
Overset time step continuity errors : max local = 2.7424803e-05, sum local = 1.0721118e-09, global = -7.2819324e-10, cumulative = -5.8910346e-09
In manipulateMatrix: true bou: 123 int: 0
amgSolver:  Solving for p, Initial residual = 0.0031141983, Final residual = 6.2791562e-08, No Iterations 15
Overset time step continuity errors : max local = 8.9579685e-05, sum local = 6.9548819e-10, global = 4.705277e-10, cumulative = -5.4205069e-09
In manipulateMatrix: true bou: 123 int: 0
amgSolver:  Solving for p, Initial residual = 0.00077647423, Final residual = 9.0125427e-08, No Iterations 15
Overset time step continuity errors : max local = 0.00015024692, sum local = 9.8722793e-10, global = 6.7468175e-10, cumulative = -4.7458252e-09
In manipulateMatrix: true bou: 123 int: 0
amgSolver:  Solving for p, Initial residual = 0.00038359103, Final residual = 7.4332393e-08, No Iterations 14
Overset time step continuity errors : max local = 0.00013224972, sum local = 8.1429289e-10, global = 5.4286148e-10, cumulative = -4.2029637e-09
ExecutionTime = 3.65 s  ClockTime = 4 s

forces output:
    forces(pressure, viscous)((36.313678 -0.00024555701 1.7314736e-17) (0.19822917 -3.8381975e-07 2.1496832e-20))
    moment(pressure, viscous)((2.4555701e-06 0.36313678 2.617927e-11) (3.8381975e-09 0.0019822917 -1.2311361e-08))

Time = 0.0105

Courant Number mean: 1.3613579 max: 13.625647 velocity magnitude: 242.90237
In manipulateMatrix: true bou: 123 int: 0
smoothSolver:  Solving for Ux, Initial residual = 0.0087375335, Final residual = 8.3125601e-08, No Iterations 39
smoothSolver:  Solving for Uy, Initial residual = 0.0032152609, Final residual = 8.8141048e-08, No Iterations 38
In manipulateMatrix: true bou: 123 int: 0
amgSolver:  Solving for p, Initial residual = 0.0070782992, Final residual = 7.5684864e-08, No Iterations 21
Overset time step continuity errors : max local = 2.0174836e-05, sum local = 8.3024517e-10, global = -5.586756e-10, cumulative = -4.7616393e-09
In manipulateMatrix: true bou: 123 int: 0
amgSolver:  Solving for p, Initial residual = 0.0028112421, Final residual = 9.8748106e-08, No Iterations 17
Overset time step continuity errors : max local = 0.00015245226, sum local = 1.0981157e-09, global = 7.4709336e-10, cumulative = -4.0145459e-09
In manipulateMatrix: true bou: 123 int: 0
amgSolver:  Solving for p, Initial residual = 0.00075106138, Final residual = 8.6022948e-08, No Iterations 15
Overset time step continuity errors : max local = 0.00014097606, sum local = 9.4816574e-10, global = 6.4398763e-10, cumulative = -3.3705583e-09
In manipulateMatrix: true bou: 123 int: 0
amgSolver:  Solving for p, Initial residual = 0.00037629026, Final residual = 7.0008165e-08, No Iterations 14
Overset time step continuity errors : max local = 0.00012383879, sum local = 7.7166583e-10, global = 5.3151617e-10, cumulative = -2.8390421e-09
ExecutionTime = 3.78 s  ClockTime = 4 s

forces output:
    forces(pressure, viscous)((36.392579 -0.00026283013 1.7346901e-17) (0.19830875 -4.1697071e-07 2.1284834e-20))
    moment(pressure, viscous)((2.6283013e-06 0.36392579 2.7720699e-11) (4.1697071e-09 0.0019830875 -1.3302105e-08))

Time = 0.011

Courant Number mean: 1.3614633 max: 13.634674 velocity magnitude: 243.06331
In manipulateMatrix: true bou: 123 int: 0
smoothSolver:  Solving for Ux, Initial residual = 0.0081178694, Final residual = 9.9477545e-08, No Iterations 38
smoothSolver:  Solving for Uy, Initial residual = 0.0029060435, Final residual = 8.0649032e-08, No Iterations 38
In manipulateMatrix: true bou: 123 int: 0
amgSolver:  Solving for p, Initial residual = 0.0063126579, Final residual = 7.8616668e-08, No Iterations 22
Overset time step continuity errors : max local = 2.0739428e-05, sum local = 8.6760291e-10, global = -5.8060128e-10, cumulative = -3.4196434e-09
In manipulateMatrix: true bou: 123 int: 0
amgSolver:  Solving for p, Initial residual = 0.0025390192, Final residual = 6.4036162e-08, No Iterations 19
Overset time step continuity errors : max local = 0.00010026747, sum local = 7.1492485e-10, global = 4.813196e-10, cumulative = -2.9383238e-09
In manipulateMatrix: true bou: 123 int: 0
amgSolver:  Solving for p, Initial residual = 0.0007237136, Final residual = 6.7566487e-08, No Iterations 17
Overset time step continuity errors : max local = 0.00011101888, sum local = 7.4909255e-10, global = 5.1200469e-10, cumulative = -2.4263191e-09
In manipulateMatrix: true bou: 123 int: 0
amgSolver:  Solving for p, Initial residual = 0.00036584097, Final residual = 7.022001e-08, No Iterations 14
Overset time step continuity errors : max local = 0.00012456626, sum local = 7.784853e-10, global = 5.432261e-10, cumulative = -1.883093e-09
ExecutionTime = 3.93 s  ClockTime = 4 s

forces output:
    forces(pressure, viscous)((36.467439 -0.00027941002 1.7380577e-17) (0.19840692 -4.4631809e-07 2.11524e-20))
    moment(pressure, viscous)((2.7941002e-06 0.36467439 2.8997963e-11) (4.4631809e-09 0.0019840692 -1.4034547e-08))

Time = 0.0115

Courant Number mean: 1.3615366 max: 13.64331 velocity magnitude: 243.21725
In manipulateMatrix: true bou: 123 int: 0
smoothSolver:  Solving for Ux, Initial residual = 0.0075313608, Final residual = 8.8140969e-08, No Iterations 38
smoothSolver:  Solving for Uy, Initial residual = 0.0026462526, Final residual = 9.8649871e-08, No Iterations 37
In manipulateMatrix: true bou: 123 int: 0
amgSolver:  Solving for p, Initial residual = 0.0056212719, Final residual = 8.7032874e-08, No Iterations 18
Overset time step continuity errors : max local = 2.3087895e-05, sum local = 9.6582026e-10, global = -6.4839249e-10, cumulative = -2.5314855e-09
In manipulateMatrix: true bou: 123 int: 0
amgSolver:  Solving for p, Initial residual = 0.002302183, Final residual = 8.8956631e-08, No Iterations 18
Overset time step continuity errors : max local = 0.00013579934, sum local = 9.9677492e-10, global = 6.6980925e-10, cumulative = -1.8616763e-09
In manipulateMatrix: true bou: 123 int: 0
amgSolver:  Solving for p, Initial residual = 0.00069136328, Final residual = 6.3666068e-08, No Iterations 17
Overset time step continuity errors : max local = 0.00010388379, sum local = 7.0956466e-10, global = 4.8628469e-10, cumulative = -1.3753916e-09
In manipulateMatrix: true bou: 123 int: 0
amgSolver:  Solving for p, Initial residual = 0.00035268301, Final residual = 8.6846831e-08, No Iterations 13
Overset time step continuity errors : max local = 0.0001538487, sum local = 9.6783406e-10, global = 6.9692882e-10, cumulative = -6.7846276e-10
ExecutionTime = 4.07 s  ClockTime = 4 s

forces output:
    forces(pressure, viscous)((36.53625 -0.00029362956 1.7414887e-17) (0.1985173 -4.6982114e-07 2.1081779e-20))
    moment(pressure, viscous)((2.9362956e-06 0.3653625 2.9937751e-11) (4.6982114e-09 0.001985173 -1.4517238e-08))

Time = 0.012

Courant Number mean: 1.3615836 max: 13.651569 velocity magnitude: 243.36448
In manipulateMatrix: true bou: 123 int: 0
smoothSolver:  Solving for Ux, Initial residual = 0.0069780658, Final residual = 7.7834389e-08, No Iterations 38
smoothSolver:  Solving for Uy, Initial residual = 0.0024233562, Final residual = 8.9460898e-08, No Iterations 37
In manipulateMatrix: true bou: 123 int: 0
amgSolver:  Solving for p, Initial residual = 0.0049156302, Final residual = 7.0417345e-08, No Iterations 17
Overset time step continuity errors : max local = 1.9143676e-05, sum local = 7.8531292e-10, global = -5.163793e-10, cumulative = -1.1948421e-09
In manipulateMatrix: true bou: 123 int: 0
amgSolver:  Solving for p, Initial residual = 0.0020962419, Final residual = 6.242223e-08, No Iterations 19
Overset time step continuity errors : max local = 9.2518418e-05, sum local = 7.0163112e-10, global = 4.6621854e-10, cumulative = -7.2862352e-10
In manipulateMatrix: true bou: 123 int: 0
amgSolver:  Solving for p, Initial residual = 0.00065701864, Final residual = 9.5162711e-08, No Iterations 16
Overset time step continuity errors : max local = 0.00015480861, sum local = 1.0654442e-09, global = 7.3384365e-10, cumulative = 5.22013e-12
In manipulateMatrix: true bou: 123 int: 0
amgSolver:  Solving for p, Initial residual = 0.00033747187, Final residual = 6.6079872e-08, No Iterations 14
Overset time step continuity errors : max local = 0.00011933566, sum local = 7.3973188e-10, global = 5.2127252e-10, cumulative = 5.2649265e-10
ExecutionTime = 4.2 s  ClockTime = 4 s

forces output:
    forces(pressure, viscous)((36.598487 -0.00030638994 1.7448869e-17) (0.19863408 -4.8951658e-07 2.105751e-20))
    moment(pressure, viscous)((3.0638994e-06 0.36598487 3.0762726e-11) (4.8951658e-09 0.0019863408 -1.4856611e-08))

Time = 0.0125

Courant Number mean: 1.3616041 max: 13.659415 velocity magnitude: 243.50436
In manipulateMatrix: true bou: 123 int: 0
smoothSolver:  Solving for Ux, Initial residual = 0.0064577931, Final residual = 9.2440862e-08, No Iterations 37
smoothSolver:  Solving for Uy, Initial residual = 0.0022305389, Final residual = 8.0688313e-08, No Iterations 37
In manipulateMatrix: true bou: 123 int: 0
amgSolver:  Solving for p, Initial residual = 0.0044176993, Final residual = 8.8495477e-08, No Iterations 14
Overset time step continuity errors : max local = 1.8863574e-05, sum local = 9.9120914e-10, global = -5.4470587e-10, cumulative = -1.8213219e-11
In manipulateMatrix: true bou: 123 int: 0
amgSolver:  Solving for p, Initial residual = 0.0019273572, Final residual = 9.7770078e-08, No Iterations 14
Overset time step continuity errors : max local = 1.8054883e-05, sum local = 1.1017338e-09, global = -8.3992482e-10, cumulative = -8.5813804e-10
In manipulateMatrix: true bou: 123 int: 0
amgSolver:  Solving for p, Initial residual = 0.00062236194, Final residual = 8.2244822e-08, No Iterations 16
Overset time step continuity errors : max local = 0.00012607162, sum local = 9.2439462e-10, global = 6.3802294e-10, cumulative = -2.201151e-10
In manipulateMatrix: true bou: 123 int: 0
amgSolver:  Solving for p, Initial residual = 0.00032080988, Final residual = 6.7055571e-08, No Iterations 13
Overset time step continuity errors : max local = 0.00010988922, sum local = 7.5352301e-10, global = 5.3242906e-10, cumulative = 3.1231396e-10
ExecutionTime = 4.33 s  ClockTime = 4 s

forces output:
    forces(pressure, viscous)((36.655034 -0.00031829834 1.7481582e-17) (0.19875268 -5.0711881e-07 2.1067049e-20))
    moment(pressure, viscous)((3.1829834e-06 0.36655034 3.1462835e-11) (5.0711881e-09 0.0019875268 -1.499188e-08))

Time = 0.013

Courant Number mean: 1.3616035 max: 13.666808 velocity magnitude: 243.63615
In manipulateMatrix: true bou: 123 int: 0
smoothSolver:  Solving for Ux, Initial residual = 0.0059728098, Final residual = 8.1339981e-08, No Iterations 37
smoothSolver:  Solving for Uy, Initial residual = 0.0020683877, Final residual = 9.7182213e-08, No Iterations 36
In manipulateMatrix: true bou: 123 int: 0
amgSolver:  Solving for p, Initial residual = 0.0039640796, Final residual = 9.9141934e-08, No Iterations 15
Overset time step continuity errors : max local = 0.00021554249, sum local = 1.1150277e-09, global = 3.0509467e-10, cumulative = 6.1740863e-10
In manipulateMatrix: true bou: 123 int: 0
amgSolver:  Solving for p, Initial residual = 0.0017876459, Final residual = 9.1043067e-08, No Iterations 14
Overset time step continuity errors : max local = 1.8549495e-05, sum local = 1.0289416e-09, global = -6.3112049e-10, cumulative = -1.3711852e-11
In manipulateMatrix: true bou: 123 int: 0
amgSolver:  Solving for p, Initial residual = 0.00058385363, Final residual = 7.9195569e-08, No Iterations 16
Overset time step continuity errors : max local = 0.00012167953, sum local = 8.9373054e-10, global = 6.1662989e-10, cumulative = 6.0291803e-10
In manipulateMatrix: true bou: 123 int: 0
amgSolver:  Solving for p, Initial residual = 0.00030101076, Final residual = 7.3435474e-08, No Iterations 13
Overset time step continuity errors : max local = 0.00012097102, sum local = 8.2856697e-10, global = 5.9966217e-10, cumulative = 1.2025802e-09
ExecutionTime = 4.45 s  ClockTime = 4 s

forces output:
    forces(pressure, viscous)((36.706324 -0.00032859019 1.7512522e-17) (0.19886981 -5.2104013e-07 2.1100463e-20))
    moment(pressure, viscous)((3.2859019e-06 0.36706324 3.2019123e-11) (5.2104013e-09 0.0019886981 -1.5057212e-08))

Time = 0.0135

Courant Number mean: 1.3615858 max: 13.673731 velocity magnitude: 243.75956
In manipulateMatrix: true bou: 123 int: 0
smoothSolver:  Solving for Ux, Initial residual = 0.0055229236, Final residual = 9.671546e-08, No Iterations 36
smoothSolver:  Solving for Uy, Initial residual = 0.0019361033, Final residual = 8.7755747e-08, No Iterations 36
In manipulateMatrix: true bou: 123 int: 0
amgSolver:  Solving for p, Initial residual = 0.0035830817, Final residual = 6.497759e-08, No Iterations 14
Overset time step continuity errors : max local = 2.9030652e-05, sum local = 7.3371685e-10, global = -3.3542277e-10, cumulative = 8.6715744e-10
In manipulateMatrix: true bou: 123 int: 0
amgSolver:  Solving for p, Initial residual = 0.0016515652, Final residual = 8.7230459e-08, No Iterations 14
Overset time step continuity errors : max local = 1.834473e-05, sum local = 9.8851811e-10, global = -5.2125596e-10, cumulative = 3.4590148e-10
In manipulateMatrix: true bou: 123 int: 0
amgSolver:  Solving for p, Initial residual = 0.00054334175, Final residual = 7.4214072e-08, No Iterations 16
Overset time step continuity errors : max local = 0.00011441714, sum local = 8.4051694e-10, global = 5.8833618e-10, cumulative = 9.3423766e-10
In manipulateMatrix: true bou: 123 int: 0
amgSolver:  Solving for p, Initial residual = 0.00027998911, Final residual = 6.9948454e-08, No Iterations 13
Overset time step continuity errors : max local = 0.00011493843, sum local = 7.9205741e-10, global = 5.7330144e-10, cumulative = 1.5075391e-09
ExecutionTime = 4.59 s  ClockTime = 5 s

forces output:
    forces(pressure, viscous)((36.752179 -0.0003396766 1.7541381e-17) (0.1989829 -5.3399001e-07 2.1149599e-20))
    moment(pressure, viscous)((3.396766e-06 0.36752179 3.2594671e-11) (5.3399001e-09 0.001989829 -1.4965849e-08))

Time = 0.014

Courant Number mean: 1.3615541 max: 13.680172 velocity magnitude: 243.87439
In manipulateMatrix: true bou: 123 int: 0
smoothSolver:  Solving for Ux, Initial residual = 0.0051076386, Final residual = 8.5184334e-08, No Iterations 36
smoothSolver:  Solving for Uy, Initial residual = 0.0018271885, Final residual = 7.9551267e-08, No Iterations 36
In manipulateMatrix: true bou: 123 int: 0
amgSolver:  Solving for p, Initial residual = 0.0032859149, Final residual = 7.7598462e-08, No Iterations 17
Overset time step continuity errors : max local = 1.441293e-05, sum local = 8.7932325e-10, global = -5.8304078e-10, cumulative = 9.2449832e-10
In manipulateMatrix: true bou: 123 int: 0
amgSolver:  Solving for p, Initial residual = 0.0015282351, Final residual = 9.1042102e-08, No Iterations 14
Overset time step continuity errors : max local = 2.2180003e-05, sum local = 1.0341474e-09, global = -4.0597934e-10, cumulative = 5.1851898e-10
In manipulateMatrix: true bou: 123 int: 0
amgSolver:  Solving for p, Initial residual = 0.00050251976, Final residual = 6.9216762e-08, No Iterations 16
Overset time step continuity errors : max local = 0.00010668386, sum local = 7.8635407e-10, global = 5.5035718e-10, cumulative = 1.0688762e-09
In manipulateMatrix: true bou: 123 int: 0
amgSolver:  Solving for p, Initial residual = 0.00025830043, Final residual = 6.6267545e-08, No Iterations 13
Overset time step continuity errors : max local = 0.00010776278, sum local = 7.5271319e-10, global = 5.325644e-10, cumulative = 1.6014406e-09
ExecutionTime = 4.72 s  ClockTime = 5 s

forces output:
    forces(pressure, viscous)((36.793248 -0.00034959571 1.7567907e-17) (0.19909021 -5.4621216e-07 2.1207997e-20))
    moment(pressure, viscous)((3.4959571e-06 0.36793248 3.3137963e-11) (5.4621216e-09 0.0019909021 -1.4951845e-08))

Time = 0.0145

Courant Number mean: 1.3615119 max: 13.686129 velocity magnitude: 243.98058
In manipulateMatrix: true bou: 123 int: 0
smoothSolver:  Solving for Ux, Initial residual = 0.0047249029, Final residual = 7.5007734e-08, No Iterations 36
smoothSolver:  Solving for Uy, Initial residual = 0.0017305935, Final residual = 9.6490115e-08, No Iterations 35
In manipulateMatrix: true bou: 123 int: 0
amgSolver:  Solving for p, Initial residual = 0.0030320572, Final residual = 6.4581851e-08, No Iterations 18
Overset time step continuity errors : max local = 1.1276613e-05, sum local = 7.3406985e-10, global = -4.9286889e-10, cumulative = 1.1085717e-09
In manipulateMatrix: true bou: 123 int: 0
amgSolver:  Solving for p, Initial residual = 0.0014291983, Final residual = 8.0731167e-08, No Iterations 18
Overset time step continuity errors : max local = 1.2294181e-05, sum local = 9.1890561e-10, global = -6.4172512e-10, cumulative = 4.6684655e-10
In manipulateMatrix: true bou: 123 int: 0
amgSolver:  Solving for p, Initial residual = 0.00046238888, Final residual = 6.6383896e-08, No Iterations 16
Overset time step continuity errors : max local = 0.0001203103, sum local = 7.5618773e-10, global = 5.3155025e-10, cumulative = 9.983968e-10
In manipulateMatrix: true bou: 123 int: 0
amgSolver:  Solving for p, Initial residual = 0.00023763056, Final residual = 7.3389764e-08, No Iterations 10
Overset time step continuity errors : max local = 0.00013071622, sum local = 8.3584065e-10, global = 5.62421e-10, cumulative = 1.5608178e-09
ExecutionTime = 4.86 s  ClockTime = 5 s

forces output:
    forces(pressure, viscous)((36.830171 -0.00035920001 1.7591983e-17) (0.19919077 -5.5749606e-07 2.1270792e-20))
    moment(pressure, viscous)((3.5920001e-06 0.36830171 3.3693e-11) (5.5749606e-09 0.0019919077 -1.4967651e-08))

Time = 0.015

Courant Number mean: 1.3614633 max: 13.691616 velocity magnitude: 244.0784
In manipulateMatrix: true bou: 123 int: 0
smoothSolver:  Solving for Ux, Initial residual = 0.0043742184, Final residual = 8.9859699e-08, No Iterations 35
smoothSolver:  Solving for Uy, Initial residual = 0.0016398078, Final residual = 8.8619045e-08, No Iterations 35
In manipulateMatrix: true bou: 123 int: 0
amgSolver:  Solving for p, Initial residual = 0.0027859355, Final residual = 6.37071e-08, No Iterations 18
Overset time step continuity errors : max local = 1.0999779e-05, sum local = 7.2604315e-10, global = -4.888846e-10, cumulative = 1.0719332e-09
In manipulateMatrix: true bou: 123 int: 0
amgSolver:  Solving for p, Initial residual = 0.0013465868, Final residual = 8.9869316e-08, No Iterations 15
Overset time step continuity errors : max local = 1.4644431e-05, sum local = 1.024747e-09, global = -7.0380199e-10, cumulative = 3.6813121e-10
In manipulateMatrix: true bou: 123 int: 0
amgSolver:  Solving for p, Initial residual = 0.00042174922, Final residual = 6.8375779e-08, No Iterations 16
Overset time step continuity errors : max local = 0.00012362776, sum local = 7.8064881e-10, global = 5.4067229e-10, cumulative = 9.088035e-10
In manipulateMatrix: true bou: 123 int: 0
amgSolver:  Solving for p, Initial residual = 0.00021756277, Final residual = 8.3934536e-08, No Iterations 12
Overset time step continuity errors : max local = 0.00015742471, sum local = 9.5811826e-10, global = 6.9948847e-10, cumulative = 1.608292e-09
ExecutionTime = 4.97 s  ClockTime = 5 s

forces output:
    forces(pressure, viscous)((36.863363 -0.00036814396 1.7613624e-17) (0.19928411 -5.6845879e-07 2.133438e-20))
    moment(pressure, viscous)((3.6814396e-06 0.36863363 3.430656e-11) (5.6845879e-09 0.0019928411 -1.4880153e-08))

Time = 0.0155

Courant Number mean: 1.3614096 max: 13.696656 velocity magnitude: 244.16825
In manipulateMatrix: true bou: 123 int: 0
smoothSolver:  Solving for Ux, Initial residual = 0.0040538965, Final residual = 7.9386945e-08, No Iterations 35
smoothSolver:  Solving for Uy, Initial residual = 0.0015525973, Final residual = 8.1920823e-08, No Iterations 35
In manipulateMatrix: true bou: 123 int: 0
amgSolver:  Solving for p, Initial residual = 0.0026044419, Final residual = 8.3516647e-08, No Iterations 17
Overset time step continuity errors : max local = 1.4275721e-05, sum local = 9.539534e-10, global = -6.4860466e-10, cumulative = 9.5968731e-10
In manipulateMatrix: true bou: 123 int: 0
amgSolver:  Solving for p, Initial residual = 0.0012697246, Final residual = 5.9440155e-08, No Iterations 12
Overset time step continuity errors : max local = 0.00015403635, sum local = 6.7881925e-10, global = 4.8279785e-10, cumulative = 1.4424852e-09
In manipulateMatrix: true bou: 123 int: 0
amgSolver:  Solving for p, Initial residual = 0.00038302153, Final residual = 9.9557266e-08, No Iterations 15
Overset time step continuity errors : max local = 0.00018347398, sum local = 1.1388012e-09, global = 7.9281302e-10, cumulative = 2.2352982e-09
In manipulateMatrix: true bou: 123 int: 0
amgSolver:  Solving for p, Initial residual = 0.00019852032, Final residual = 8.2698187e-08, No Iterations 12
Overset time step continuity errors : max local = 0.00015463611, sum local = 9.4583909e-10, global = 6.9169237e-10, cumulative = 2.9269906e-09
ExecutionTime = 5.1 s  ClockTime = 5 s

forces output:
    forces(pressure, viscous)((36.893012 -0.00037659148 1.763293e-17) (0.19937011 -5.7982387e-07 2.1396101e-20))
    moment(pressure, viscous)((3.7659148e-06 0.36893012 3.4964672e-11) (5.7982387e-09 0.0019937011 -1.4981433e-08))

Time = 0.016

Courant Number mean: 1.3613527 max: 13.701276 velocity magnitude: 244.25061
In manipulateMatrix: true bou: 123 int: 0
smoothSolver:  Solving for Ux, Initial residual = 0.0037617532, Final residual = 9.565597e-08, No Iterations 34
smoothSolver:  Solving for Uy, Initial residual = 0.0014715194, Final residual = 7.6112972e-08, No Iterations 35
In manipulateMatrix: true bou: 123 int: 0
amgSolver:  Solving for p, Initial residual = 0.0024393304, Final residual = 8.8729375e-08, No Iterations 14
Overset time step continuity errors : max local = 1.4640343e-05, sum local = 1.015434e-09, global = -5.4330658e-10, cumulative = 2.383684e-09
In manipulateMatrix: true bou: 123 int: 0
amgSolver:  Solving for p, Initial residual = 0.0011974692, Final residual = 6.2252707e-08, No Iterations 15
Overset time step continuity errors : max local = 9.9358122e-05, sum local = 7.1184067e-10, global = 4.6991719e-10, cumulative = 2.8536012e-09
In manipulateMatrix: true bou: 123 int: 0
amgSolver:  Solving for p, Initial residual = 0.00034705767, Final residual = 7.9218836e-08, No Iterations 15
Overset time step continuity errors : max local = 0.00014419005, sum local = 9.0760253e-10, global = 6.5205437e-10, cumulative = 3.5056555e-09
In manipulateMatrix: true bou: 123 int: 0
amgSolver:  Solving for p, Initial residual = 0.00018079418, Final residual = 6.7961746e-08, No Iterations 12
Overset time step continuity errors : max local = 0.00012451721, sum local = 7.7854865e-10, global = 5.7006532e-10, cumulative = 4.0757209e-09
ExecutionTime = 5.22 s  ClockTime = 5 s

forces output:
    forces(pressure, viscous)((36.919564 -0.00038526548 1.764996e-17) (0.19944884 -5.8995832e-07 2.1454128e-20))
    moment(pressure, viscous)((3.8526548e-06 0.36919564 3.5559094e-11) (5.8995832e-09 0.0019944884 -1.4958347e-08))

Time = 0.0165

Courant Number mean: 1.361294 max: 13.705502 velocity magnitude: 244.32594
In manipulateMatrix: true bou: 123 int: 0
smoothSolver:  Solving for Ux, Initial residual = 0.0034947816, Final residual = 8.4911036e-08, No Iterations 34
smoothSolver:  Solving for Uy, Initial residual = 0.0013973513, Final residual = 9.4568026e-08, No Iterations 34
In manipulateMatrix: true bou: 123 int: 0
amgSolver:  Solving for p, Initial residual = 0.002287069, Final residual = 7.9825993e-08, No Iterations 16
Overset time step continuity errors : max local = 1.374152e-05, sum local = 9.1501726e-10, global = -6.1337992e-10, cumulative = 3.4623409e-09
In manipulateMatrix: true bou: 123 int: 0
amgSolver:  Solving for p, Initial residual = 0.0011298082, Final residual = 7.3051326e-08, No Iterations 14
Overset time step continuity errors : max local = 0.00011815408, sum local = 8.3622795e-10, global = 5.745135e-10, cumulative = 4.0368544e-09
In manipulateMatrix: true bou: 123 int: 0
amgSolver:  Solving for p, Initial residual = 0.00031320535, Final residual = 3.7822415e-08, No Iterations 15
Overset time step continuity errors : max local = 5.5522981e-06, sum local = 4.3390174e-10, global = -2.232957e-10, cumulative = 3.8135587e-09
In manipulateMatrix: true bou: 123 int: 0
amgSolver:  Solving for p, Initial residual = 0.00016494551, Final residual = 6.971867e-08, No Iterations 12
Overset time step continuity errors : max local = 0.00012718657, sum local = 7.9976662e-10, global = 5.7378653e-10, cumulative = 4.3873453e-09
ExecutionTime = 5.35 s  ClockTime = 5 s

forces output:
    forces(pressure, viscous)((36.943414 -0.00039500345 1.7664809e-17) (0.19952061 -6.0087264e-07 2.1507309e-20))
    moment(pressure, viscous)((3.9500345e-06 0.36943414 3.6163774e-11) (6.0087264e-09 0.0019952061 -1.5109737e-08))

Time = 0.017

Courant Number mean: 1.3612343 max: 13.709364 velocity magnitude: 244.39479
In manipulateMatrix: true bou: 123 int: 0
smoothSolver:  Solving for Ux, Initial residual = 0.0032504187, Final residual = 7.5601038e-08, No Iterations 34
smoothSolver:  Solving for Uy, Initial residual = 0.0013299339, Final residual = 8.8962384e-08, No Iterations 34
In manipulateMatrix: true bou: 123 int: 0
amgSolver:  Solving for p, Initial residual = 0.002146771, Final residual = 6.9483351e-08, No Iterations 17
Overset time step continuity errors : max local = 1.2202383e-05, sum local = 7.9754938e-10, global = -5.353466e-10, cumulative = 3.8519987e-09
In manipulateMatrix: true bou: 123 int: 0
amgSolver:  Solving for p, Initial residual = 0.0010670704, Final residual = 8.5115089e-08, No Iterations 13
Overset time step continuity errors : max local = 0.00013525388, sum local = 9.753084e-10, global = 6.7443529e-10, cumulative = 4.526434e-09
In manipulateMatrix: true bou: 123 int: 0
amgSolver:  Solving for p, Initial residual = 0.00028290506, Final residual = 8.0705768e-08, No Iterations 14
Overset time step continuity errors : max local = 0.00014828879, sum local = 9.2694694e-10, global = 6.4057512e-10, cumulative = 5.1670091e-09
In manipulateMatrix: true bou: 123 int: 0
amgSolver:  Solving for p, Initial residual = 0.00015049181, Final residual = 8.2920606e-08, No Iterations 12
Overset time step continuity errors : max local = 0.00015657879, sum local = 9.5232367e-10, global = 6.5036699e-10, cumulative = 5.8173761e-09
ExecutionTime = 5.48 s  ClockTime = 6 s

forces output:
    forces(pressure, viscous)((36.964916 -0.00040181755 1.7677819e-17) (0.19958589 -6.1325263e-07 2.1555237e-20))
    moment(pressure, viscous)((4.0181755e-06 0.36964916 3.6887094e-11) (6.1325263e-09 0.0019958589 -1.5366986e-08))

Time = 0.0175

Courant Number mean: 1.3611741 max: 13.712895 velocity magnitude: 244.45773
In manipulateMatrix: true bou: 123 int: 0
smoothSolver:  Solving for Ux, Initial residual = 0.0030265654, Final residual = 9.2173481e-08, No Iterations 33
smoothSolver:  Solving for Uy, Initial residual = 0.001271097, Final residual = 8.4054198e-08, No Iterations 34
In manipulateMatrix: true bou: 123 int: 0
amgSolver:  Solving for p, Initial residual = 0.0020153414, Final residual = 8.0795814e-08, No Iterations 16
Overset time step continuity errors : max local = 1.3937666e-05, sum local = 9.2848419e-10, global = -6.3152602e-10, cumulative = 5.18585e-09
In manipulateMatrix: true bou: 123 int: 0
amgSolver:  Solving for p, Initial residual = 0.0010114995, Final residual = 5.9807962e-08, No Iterations 13
Overset time step continuity errors : max local = 9.3051247e-05, sum local = 6.8582798e-10, global = 4.6896322e-10, cumulative = 5.6548133e-09
In manipulateMatrix: true bou: 123 int: 0
amgSolver:  Solving for p, Initial residual = 0.00025618574, Final residual = 7.8089702e-08, No Iterations 14
Overset time step continuity errors : max local = 0.00014157138, sum local = 8.9773606e-10, global = 6.4670955e-10, cumulative = 6.3015228e-09
In manipulateMatrix: true bou: 123 int: 0
amgSolver:  Solving for p, Initial residual = 0.00013741493, Final residual = 7.6319789e-08, No Iterations 12
Overset time step continuity errors : max local = 0.00014273813, sum local = 8.7733842e-10, global = 5.9904166e-10, cumulative = 6.9005645e-09
ExecutionTime = 5.61 s  ClockTime = 6 s

forces output:
    forces(pressure, viscous)((36.984542 -0.00040856651 1.7689026e-17) (0.19964524 -6.2338978e-07 2.1597665e-20))
    moment(pressure, viscous)((4.0856651e-06 0.36984542 3.7449906e-11) (6.2338978e-09 0.0019964524 -1.5551125e-08))

Time = 0.018

Courant Number mean: 1.3611134 max: 13.716127 velocity magnitude: 244.51535
In manipulateMatrix: true bou: 123 int: 0
smoothSolver:  Solving for Ux, Initial residual = 0.0028224856, Final residual = 8.2829263e-08, No Iterations 33
smoothSolver:  Solving for Uy, Initial residual = 0.0012222517, Final residual = 7.9902064e-08, No Iterations 34
In manipulateMatrix: true bou: 123 int: 0
amgSolver:  Solving for p, Initial residual = 0.0018996979, Final residual = 8.9890115e-08, No Iterations 15
Overset time step continuity errors : max local = 1.5331477e-05, sum local = 1.0339457e-09, global = -7.1146739e-10, cumulative = 6.1890971e-09
In manipulateMatrix: true bou: 123 int: 0
amgSolver:  Solving for p, Initial residual = 0.00096034224, Final residual = 7.7807883e-08, No Iterations 12
Overset time step continuity errors : max local = 0.0001052489, sum local = 8.9276015e-10, global = 5.7003419e-10, cumulative = 6.7591313e-09
In manipulateMatrix: true bou: 123 int: 0
amgSolver:  Solving for p, Initial residual = 0.0002327398, Final residual = 7.0471969e-08, No Iterations 14
Overset time step continuity errors : max local = 0.00012745019, sum local = 8.1073944e-10, global = 5.844201e-10, cumulative = 7.3435514e-09
In manipulateMatrix: true bou: 123 int: 0
amgSolver:  Solving for p, Initial residual = 0.00012581346, Final residual = 7.0770947e-08, No Iterations 12
Overset time step continuity errors : max local = 0.00013147887, sum local = 8.1414703e-10, global = 5.5566454e-10, cumulative = 7.8992159e-09
ExecutionTime = 5.74 s  ClockTime = 6 s

forces output:
    forces(pressure, viscous)((37.002681 -0.00041439755 1.7698674e-17) (0.19969932 -6.3409389e-07 2.1634854e-20))
    moment(pressure, viscous)((4.1439755e-06 0.37002681 3.8023519e-11) (6.3409389e-09 0.0019969932 -1.5888869e-08))

Time = 0.0185

Courant Number mean: 1.3610522 max: 13.719096 velocity magnitude: 244.56828
In manipulateMatrix: true bou: 123 int: 0
smoothSolver:  Solving for Ux, Initial residual = 0.0026361506, Final residual = 7.4847115e-08, No Iterations 33
smoothSolver:  Solving for Uy, Initial residual = 0.001184071, Final residual = 7.6404361e-08, No Iterations 34
In manipulateMatrix: true bou: 123 int: 0
amgSolver:  Solving for p, Initial residual = 0.0017991546, Final residual = 9.6948912e-08, No Iterations 14
Overset time step continuity errors : max local = 1.6012107e-05, sum local = 1.1159299e-09, global = -7.7480375e-10, cumulative = 7.1244122e-09
In manipulateMatrix: true bou: 123 int: 0
amgSolver:  Solving for p, Initial residual = 0.00091495776, Final residual = 5.8160469e-08, No Iterations 12
Overset time step continuity errors : max local = 7.2833029e-05, sum local = 6.6762134e-10, global = 3.8159703e-10, cumulative = 7.5060092e-09
In manipulateMatrix: true bou: 123 int: 0
amgSolver:  Solving for p, Initial residual = 0.00021246679, Final residual = 6.3599397e-08, No Iterations 14
Overset time step continuity errors : max local = 0.00011398199, sum local = 7.3207266e-10, global = 5.192256e-10, cumulative = 8.0252348e-09
In manipulateMatrix: true bou: 123 int: 0
amgSolver:  Solving for p, Initial residual = 0.00011569732, Final residual = 6.6184394e-08, No Iterations 12
Overset time step continuity errors : max local = 0.00012226614, sum local = 7.6180532e-10, global = 5.1989861e-10, cumulative = 8.5451334e-09
ExecutionTime = 5.86 s  ClockTime = 6 s

forces output:
    forces(pressure, viscous)((37.019693 -0.00041862871 1.7706988e-17) (0.19974883 -6.4450113e-07 2.1667238e-20))
    moment(pressure, viscous)((4.1862871e-06 0.37019693 3.8537905e-11) (6.4450113e-09 0.0019974883 -1.6307336e-08))

Time = 0.019

Courant Number mean: 1.3609901 max: 13.721838 velocity magnitude: 244.61715
In manipulateMatrix: true bou: 123 int: 0
smoothSolver:  Solving for Ux, Initial residual = 0.0024664086, Final residual = 9.347546e-08, No Iterations 32
smoothSolver:  Solving for Uy, Initial residual = 0.0011556413, Final residual = 9.7916802e-08, No Iterations 33
In manipulateMatrix: true bou: 123 int: 0
amgSolver:  Solving for p, Initial residual = 0.001715555, Final residual = 9.6626121e-08, No Iterations 13
Overset time step continuity errors : max local = 1.6840114e-05, sum local = 1.1128269e-09, global = -7.7777929e-10, cumulative = 7.7673541e-09
In manipulateMatrix: true bou: 123 int: 0
amgSolver:  Solving for p, Initial residual = 0.00087666845, Final residual = 8.1885551e-08, No Iterations 11
Overset time step continuity errors : max local = 7.7059727e-05, sum local = 9.4028121e-10, global = 3.1182837e-10, cumulative = 8.0791825e-09
In manipulateMatrix: true bou: 123 int: 0
amgSolver:  Solving for p, Initial residual = 0.00019527655, Final residual = 9.1433552e-08, No Iterations 13
Overset time step continuity errors : max local = 0.00016532939, sum local = 1.0529012e-09, global = 7.6217417e-10, cumulative = 8.8413567e-09
In manipulateMatrix: true bou: 123 int: 0
amgSolver:  Solving for p, Initial residual = 0.00010714007, Final residual = 9.7857059e-08, No Iterations 11
Overset time step continuity errors : max local = 0.00018441931, sum local = 1.1268437e-09, global = 7.7585616e-10, cumulative = 9.6172128e-09
ExecutionTime = 5.97 s  ClockTime = 6 s

forces output:
    forces(pressure, viscous)((37.035885 -0.00042188847 1.7714175e-17) (0.19979445 -6.5185053e-07 2.169537e-20))
    moment(pressure, viscous)((4.2188847e-06 0.37035885 3.8844915e-11) (6.5185053e-09 0.0019979445 -1.6557537e-08))

Time = 0.0195

Courant Number mean: 1.3609268 max: 13.724387 velocity magnitude: 244.66261
In manipulateMatrix: true bou: 123 int: 0
smoothSolver:  Solving for Ux, Initial residual = 0.0023114765, Final residual = 8.5622501e-08, No Iterations 32
smoothSolver:  Solving for Uy, Initial residual = 0.0011356565, Final residual = 9.4639983e-08, No Iterations 33
In manipulateMatrix: true bou: 123 int: 0
amgSolver:  Solving for p, Initial residual = 0.001647375, Final residual = 8.5686496e-08, No Iterations 12
Overset time step continuity errors : max local = 1.6815222e-05, sum local = 9.8725003e-10, global = -6.6271725e-10, cumulative = 8.9544956e-09
In manipulateMatrix: true bou: 123 int: 0
amgSolver:  Solving for p, Initial residual = 0.00084522072, Final residual = 8.9076781e-08, No Iterations 9
Overset time step continuity errors : max local = 8.4156754e-05, sum local = 1.0231256e-09, global = 2.0326408e-10, cumulative = 9.1577597e-09
In manipulateMatrix: true bou: 123 int: 0
amgSolver:  Solving for p, Initial residual = 0.00018133914, Final residual = 9.3429288e-08, No Iterations 13
Overset time step continuity errors : max local = 0.00017180898, sum local = 1.0762192e-09, global = 7.6550077e-10, cumulative = 9.9232604e-09
In manipulateMatrix: true bou: 123 int: 0
amgSolver:  Solving for p, Initial residual = 0.00010012294, Final residual = 9.3630239e-08, No Iterations 11
Overset time step continuity errors : max local = 0.00017544404, sum local = 1.0785119e-09, global = 7.4278491e-10, cumulative = 1.0666045e-08
ExecutionTime = 6.08 s  ClockTime = 6 s

forces output:
    forces(pressure, viscous)((37.051502 -0.00042410662 1.7720458e-17) (0.19983688 -6.5903591e-07 2.1719879e-20))
    moment(pressure, viscous)((4.2410662e-06 0.37051502 3.9141338e-11) (6.5903591e-09 0.0019983688 -1.6908075e-08))

Time = 0.02

Courant Number mean: 1.360862 max: 13.726778 velocity magnitude: 244.70523
In manipulateMatrix: true bou: 123 int: 0
smoothSolver:  Solving for Ux, Initial residual = 0.0021696156, Final residual = 7.8941103e-08, No Iterations 32
smoothSolver:  Solving for Uy, Initial residual = 0.0011211639, Final residual = 9.1790532e-08, No Iterations 33
In manipulateMatrix: true bou: 123 int: 0
amgSolver:  Solving for p, Initial residual = 0.0015936107, Final residual = 9.1964884e-08, No Iterations 11
Overset time step continuity errors : max local = 2.4504528e-05, sum local = 1.0599107e-09, global = -4.1107322e-10, cumulative = 1.0254972e-08
In manipulateMatrix: true bou: 123 int: 0
amgSolver:  Solving for p, Initial residual = 0.00081998887, Final residual = 7.6194112e-08, No Iterations 10
Overset time step continuity errors : max local = 1.6673698e-05, sum local = 8.7529239e-10, global = -2.7222349e-10, cumulative = 9.9827486e-09
In manipulateMatrix: true bou: 123 int: 0
amgSolver:  Solving for p, Initial residual = 0.00016989679, Final residual = 6.785513e-08, No Iterations 13
Overset time step continuity errors : max local = 0.00012159963, sum local = 7.8179452e-10, global = 5.4953876e-10, cumulative = 1.0532287e-08
In manipulateMatrix: true bou: 123 int: 0
amgSolver:  Solving for p, Initial residual = 9.4374211e-05, Final residual = 9.0099884e-08, No Iterations 11
Overset time step continuity errors : max local = 0.00016802442, sum local = 1.0380587e-09, global = 7.1469597e-10, cumulative = 1.1246983e-08
ExecutionTime = 6.19 s  ClockTime = 6 s

forces output:
    forces(pressure, viscous)((37.066763 -0.00042448212 1.7725991e-17) (0.19987672 -6.6512465e-07 2.1741329e-20))
    moment(pressure, viscous)((4.2448212e-06 0.37066763 3.9342514e-11) (6.6512465e-09 0.0019987672 -1.7277988e-08))

Time = 0.0205

Courant Number mean: 1.3607953 max: 13.729042 velocity magnitude: 244.74558
In manipulateMatrix: true bou: 123 int: 0
smoothSolver:  Solving for Ux, Initial residual = 0.0020403119, Final residual = 7.3289533e-08, No Iterations 32
smoothSolver:  Solving for Uy, Initial residual = 0.0011091745, Final residual = 8.9288638e-08, No Iterations 33
In manipulateMatrix: true bou: 123 int: 0
amgSolver:  Solving for p, Initial residual = 0.0015530693, Final residual = 6.729218e-08, No Iterations 10
Overset time step continuity errors : max local = 8.73721e-05, sum local = 7.7570481e-10, global = 1.0478267e-11, cumulative = 1.1257462e-08
In manipulateMatrix: true bou: 123 int: 0
amgSolver:  Solving for p, Initial residual = 0.00080042375, Final residual = 9.0036507e-08, No Iterations 13
Overset time step continuity errors : max local = 1.2740058e-05, sum local = 1.0344089e-09, global = -4.5067507e-10, cumulative = 1.0806787e-08
In manipulateMatrix: true bou: 123 int: 0
amgSolver:  Solving for p, Initial residual = 0.00016078148, Final residual = 6.3789011e-08, No Iterations 13
Overset time step continuity errors : max local = 0.00011408934, sum local = 7.3503703e-10, global = 5.1731949e-10, cumulative = 1.1324106e-08
In manipulateMatrix: true bou: 123 int: 0
amgSolver:  Solving for p, Initial residual = 8.9837057e-05, Final residual = 8.7549479e-08, No Iterations 11
Overset time step continuity errors : max local = 0.00016263467, sum local = 1.0087948e-09, global = 6.9418083e-10, cumulative = 1.2018287e-08
ExecutionTime = 6.31 s  ClockTime = 6 s

forces output:
    forces(pressure, viscous)((37.081819 -0.00042339029 1.7730974e-17) (0.19991453 -6.6941845e-07 2.1760312e-20))
    moment(pressure, viscous)((4.2339029e-06 0.37081819 3.9431893e-11) (6.6941845e-09 0.0019991453 -1.7629948e-08))

Time = 0.021

Courant Number mean: 1.3607265 max: 13.731207 velocity magnitude: 244.78417
In manipulateMatrix: true bou: 123 int: 0
smoothSolver:  Solving for Ux, Initial residual = 0.0019226491, Final residual = 9.3729632e-08, No Iterations 31
smoothSolver:  Solving for Uy, Initial residual = 0.0010972813, Final residual = 8.6995279e-08, No Iterations 33
In manipulateMatrix: true bou: 123 int: 0
amgSolver:  Solving for p, Initial residual = 0.0015259596, Final residual = 9.9583978e-08, No Iterations 12
Overset time step continuity errors : max local = 0.00018686899, sum local = 1.1480769e-09, global = 3.5702727e-10, cumulative = 1.2375314e-08
In manipulateMatrix: true bou: 123 int: 0
amgSolver:  Solving for p, Initial residual = 0.0007858021, Final residual = 8.5584898e-08, No Iterations 12
Overset time step continuity errors : max local = 1.632367e-05, sum local = 9.8330323e-10, global = -6.1340303e-10, cumulative = 1.1761911e-08
In manipulateMatrix: true bou: 123 int: 0
amgSolver:  Solving for p, Initial residual = 0.00015372142, Final residual = 6.763168e-08, No Iterations 13
Overset time step continuity errors : max local = 0.00012239454, sum local = 7.7935912e-10, global = 5.4443723e-10, cumulative = 1.2306348e-08
In manipulateMatrix: true bou: 123 int: 0
amgSolver:  Solving for p, Initial residual = 8.635024e-05, Final residual = 8.5883397e-08, No Iterations 11
Overset time step continuity errors : max local = 0.00015895028, sum local = 9.8964738e-10, global = 6.8188789e-10, cumulative = 1.2988236e-08
ExecutionTime = 6.41 s  ClockTime = 6 s

forces output:
    forces(pressure, viscous)((37.096816 -0.00042092345 1.7735546e-17) (0.19995083 -6.7027421e-07 2.177732e-20))
    moment(pressure, viscous)((4.2092345e-06 0.37096816 3.9335798e-11) (6.7027421e-09 0.0019995083 -1.7770868e-08))

Time = 0.0215

Courant Number mean: 1.3606556 max: 13.733299 velocity magnitude: 244.82147
In manipulateMatrix: true bou: 123 int: 0
smoothSolver:  Solving for Ux, Initial residual = 0.0018150202, Final residual = 8.8150706e-08, No Iterations 31
smoothSolver:  Solving for Uy, Initial residual = 0.0010847478, Final residual = 8.4840239e-08, No Iterations 33
In manipulateMatrix: true bou: 123 int: 0
amgSolver:  Solving for p, Initial residual = 0.0015110865, Final residual = 8.5536245e-08, No Iterations 15
Overset time step continuity errors : max local = 0.00014317136, sum local = 9.8617575e-10, global = 4.0852983e-10, cumulative = 1.3396766e-08
In manipulateMatrix: true bou: 123 int: 0
amgSolver:  Solving for p, Initial residual = 0.00077617117, Final residual = 9.0657276e-08, No Iterations 12
Overset time step continuity errors : max local = 1.7164294e-05, sum local = 1.0415883e-09, global = -6.6888775e-10, cumulative = 1.2727878e-08
In manipulateMatrix: true bou: 123 int: 0
amgSolver:  Solving for p, Initial residual = 0.00014853876, Final residual = 6.4824956e-08, No Iterations 11
Overset time step continuity errors : max local = 0.00011561958, sum local = 7.4701597e-10, global = 5.1221841e-10, cumulative = 1.3240097e-08
In manipulateMatrix: true bou: 123 int: 0
amgSolver:  Solving for p, Initial residual = 8.39461e-05, Final residual = 8.5305455e-08, No Iterations 11
Overset time step continuity errors : max local = 0.00015745556, sum local = 9.8299157e-10, global = 6.7725863e-10, cumulative = 1.3917355e-08
ExecutionTime = 6.52 s  ClockTime = 7 s

[...]
In manipulateMatrix: true bou: 123 int: 0
amgSolver:  Solving for p, Initial residual = 0.007330631, Final residual = 9.8319994e-08, No Iterations 17
Overset time step continuity errors : max local = 3.5857813e-05, sum local = 1.1449647e-09, global = -7.4733383e-10, cumulative = -1.0209594e-06
In manipulateMatrix: true bou: 123 int: 0
amgSolver:  Solving for p, Initial residual = 0.0034744088, Final residual = 7.7986084e-08, No Iterations 18
Overset time step continuity errors : max local = 2.2204391e-05, sum local = 9.0660545e-10, global = -5.9303901e-10, cumulative = -1.0215525e-06
ExecutionTime = 276.3 s  ClockTime = 277 s

forces output:
    forces(pressure, viscous)((35.128091 10.828132 3.4354555e-17) (0.20026187 0.014881787 9.4000724e-21))
    moment(pressure, viscous)((-0.10828132 0.35128091 -4.4356064e-07) (-0.00014881787 0.0020026187 0.00043472809))

Time = 0.9605

Courant Number mean: 1.362146 max: 13.758026 velocity magnitude: 245.26228
In manipulateMatrix: true bou: 123 int: 0
smoothSolver:  Solving for Ux, Initial residual = 0.027341376, Final residual = 8.5692476e-08, No Iterations 42
smoothSolver:  Solving for Uy, Initial residual = 0.051055551, Final residual = 9.3042076e-08, No Iterations 46
In manipulateMatrix: true bou: 123 int: 0
amgSolver:  Solving for p, Initial residual = 0.10214099, Final residual = 6.5058228e-08, No Iterations 24
Overset time step continuity errors : max local = 9.1760588e-05, sum local = 7.6104654e-10, global = 4.8079153e-10, cumulative = -1.0210717e-06
In manipulateMatrix: true bou: 123 int: 0
amgSolver:  Solving for p, Initial residual = 0.058587359, Final residual = 8.9542956e-08, No Iterations 22
Overset time step continuity errors : max local = 4.4274842e-05, sum local = 1.0559275e-09, global = -5.9748364e-10, cumulative = -1.0216692e-06
In manipulateMatrix: true bou: 123 int: 0
amgSolver:  Solving for p, Initial residual = 0.0074095727, Final residual = 8.1620293e-08, No Iterations 20
Overset time step continuity errors : max local = 3.0201362e-05, sum local = 9.5636495e-10, global = -6.2050066e-10, cumulative = -1.0222897e-06
In manipulateMatrix: true bou: 123 int: 0
amgSolver:  Solving for p, Initial residual = 0.0036357731, Final residual = 8.1301485e-08, No Iterations 17
Overset time step continuity errors : max local = 2.5896605e-05, sum local = 9.5046104e-10, global = -6.1568913e-10, cumulative = -1.0229054e-06
ExecutionTime = 276.47 s  ClockTime = 277 s

forces output:
    forces(pressure, viscous)((34.916533 9.6959009 3.1483024e-17) (0.19983898 0.016656861 2.0719038e-20))
    moment(pressure, viscous)((-0.096959009 0.34916533 -4.07118e-07) (-0.00016656861 0.0019983898 0.00052541135))

Time = 0.961

Courant Number mean: 1.3619462 max: 13.759097 velocity magnitude: 245.28137
In manipulateMatrix: true bou: 123 int: 0
smoothSolver:  Solving for Ux, Initial residual = 0.027135542, Final residual = 7.8395551e-08, No Iterations 42
smoothSolver:  Solving for Uy, Initial residual = 0.051346247, Final residual = 8.2698972e-08, No Iterations 46
In manipulateMatrix: true bou: 123 int: 0
amgSolver:  Solving for p, Initial residual = 0.10188125, Final residual = 8.0606151e-08, No Iterations 23
Overset time step continuity errors : max local = 0.00012150214, sum local = 9.5202598e-10, global = 3.4850691e-10, cumulative = -1.0225568e-06
In manipulateMatrix: true bou: 123 int: 0
amgSolver:  Solving for p, Initial residual = 0.056154431, Final residual = 8.5024248e-08, No Iterations 32
Overset time step continuity errors : max local = 5.503637e-05, sum local = 1.0038048e-09, global = 1.1404029e-10, cumulative = -1.0224428e-06
In manipulateMatrix: true bou: 123 int: 0
amgSolver:  Solving for p, Initial residual = 0.0074009056, Final residual = 7.7162958e-08, No Iterations 20
Overset time step continuity errors : max local = 2.4187103e-05, sum local = 9.154423e-10, global = -5.88274e-10, cumulative = -1.0230311e-06
In manipulateMatrix: true bou: 123 int: 0
amgSolver:  Solving for p, Initial residual = 0.0036329816, Final residual = 9.5547904e-08, No Iterations 19
Overset time step continuity errors : max local = 2.650638e-05, sum local = 1.1307205e-09, global = -7.2518442e-10, cumulative = -1.0237563e-06
ExecutionTime = 276.65 s  ClockTime = 277 s

forces output:
    forces(pressure, viscous)((34.8229 7.2610449 2.6742582e-17) (0.19909486 0.01634312 2.7771216e-20))
    moment(pressure, viscous)((-0.072610449 0.348229 -3.6828936e-07) (-0.0001634312 0.0019909486 0.00055263804))

Time = 0.9615

Courant Number mean: 1.3620172 max: 13.735529 velocity magnitude: 244.86123
In manipulateMatrix: true bou: 123 int: 0
smoothSolver:  Solving for Ux, Initial residual = 0.026978761, Final residual = 9.4465751e-08, No Iterations 41
smoothSolver:  Solving for Uy, Initial residual = 0.051745649, Final residual = 9.3565016e-08, No Iterations 45
In manipulateMatrix: true bou: 123 int: 0
amgSolver:  Solving for p, Initial residual = 0.10217497, Final residual = 6.8233638e-08, No Iterations 27
Overset time step continuity errors : max local = 1.3578196e-05, sum local = 8.0992247e-10, global = -4.4646871e-10, cumulative = -1.0242027e-06
In manipulateMatrix: true bou: 123 int: 0
amgSolver:  Solving for p, Initial residual = 0.061948801, Final residual = 8.6524786e-08, No Iterations 26
Overset time step continuity errors : max local = 0.00012991592, sum local = 9.9985255e-10, global = 5.6229919e-10, cumulative = -1.0236404e-06
In manipulateMatrix: true bou: 123 int: 0
amgSolver:  Solving for p, Initial residual = 0.0088390855, Final residual = 8.2115425e-08, No Iterations 18
Overset time step continuity errors : max local = 1.9761368e-05, sum local = 9.7681769e-10, global = -6.3083802e-10, cumulative = -1.0242713e-06
In manipulateMatrix: true bou: 123 int: 0
amgSolver:  Solving for p, Initial residual = 0.0039369507, Final residual = 6.6443605e-08, No Iterations 18
Overset time step continuity errors : max local = 1.3559508e-05, sum local = 7.8888292e-10, global = -5.0192814e-10, cumulative = -1.0247732e-06
ExecutionTime = 276.82 s  ClockTime = 277 s

forces output:
    forces(pressure, viscous)((35.142133 3.7638599 2.0388381e-17) (0.19846667 0.014076891 3.0320648e-20))
    moment(pressure, viscous)((-0.037638599 0.35142133 -2.5486443e-07) (-0.00014076891 0.0019846667 0.00052496177))

Time = 0.962

Courant Number mean: 1.3623318 max: 13.694164 velocity magnitude: 244.12382
In manipulateMatrix: true bou: 123 int: 0
smoothSolver:  Solving for Ux, Initial residual = 0.02715824, Final residual = 9.6471074e-08, No Iterations 41
smoothSolver:  Solving for Uy, Initial residual = 0.052149482, Final residual = 8.0059894e-08, No Iterations 45
In manipulateMatrix: true bou: 123 int: 0
amgSolver:  Solving for p, Initial residual = 0.10652404, Final residual = 7.9540606e-08, No Iterations 27
Overset time step continuity errors : max local = 1.5326677e-05, sum local = 9.3967593e-10, global = -5.665688e-10, cumulative = -1.0253398e-06
In manipulateMatrix: true bou: 123 int: 0
amgSolver:  Solving for p, Initial residual = 0.068068391, Final residual = 9.588437e-08, No Iterations 26
Overset time step continuity errors : max local = 0.00016470251, sum local = 1.0979667e-09, global = 6.7158499e-10, cumulative = -1.0246682e-06
In manipulateMatrix: true bou: 123 int: 0
amgSolver:  Solving for p, Initial residual = 0.0095398971, Final residual = 6.4567713e-08, No Iterations 15
Overset time step continuity errors : max local = 7.3853934e-05, sum local = 7.6224803e-10, global = -7.2690655e-11, cumulative = -1.0247409e-06
In manipulateMatrix: true bou: 123 int: 0
amgSolver:  Solving for p, Initial residual = 0.0043401714, Final residual = 9.0224261e-08, No Iterations 16
Overset time step continuity errors : max local = 2.5119191e-05, sum local = 1.0642151e-09, global = -7.282423e-10, cumulative = -1.0254691e-06
ExecutionTime = 276.98 s  ClockTime = 278 s

forces output:
    forces(pressure, viscous)((35.484864 -0.34513314 1.3179241e-17) (0.19838097 0.010089013 3.5998168e-20))
    moment(pressure, viscous)((0.0034513314 0.35484864 -5.8307487e-09) (-0.00010089013 0.0019838097 0.00044372613))

Time = 0.9625

Courant Number mean: 1.3626871 max: 13.63981 velocity magnitude: 243.15486
In manipulateMatrix: true bou: 123 int: 0
smoothSolver:  Solving for Ux, Initial residual = 0.027508849, Final residual = 7.9800176e-08, No Iterations 42
smoothSolver:  Solving for Uy, Initial residual = 0.05271435, Final residual = 9.0739001e-08, No Iterations 45
In manipulateMatrix: true bou: 123 int: 0
amgSolver:  Solving for p, Initial residual = 0.11392857, Final residual = 7.1266599e-08, No Iterations 27
Overset time step continuity errors : max local = 9.9198271e-06, sum local = 8.3171928e-10, global = -5.2535026e-10, cumulative = -1.0259945e-06
In manipulateMatrix: true bou: 123 int: 0
amgSolver:  Solving for p, Initial residual = 0.068917299, Final residual = 8.4601778e-08, No Iterations 26
Overset time step continuity errors : max local = 0.00015419818, sum local = 9.5757652e-10, global = 5.9874498e-10, cumulative = -1.0253957e-06
In manipulateMatrix: true bou: 123 int: 0
amgSolver:  Solving for p, Initial residual = 0.0089541994, Final residual = 7.6136443e-08, No Iterations 18
Overset time step continuity errors : max local = 0.00015095374, sum local = 8.8582177e-10, global = 6.0825606e-10, cumulative = -1.0247875e-06
In manipulateMatrix: true bou: 123 int: 0
amgSolver:  Solving for p, Initial residual = 0.0041778211, Final residual = 9.7603352e-08, No Iterations 13
Overset time step continuity errors : max local = 5.4513313e-05, sum local = 1.1358637e-09, global = -6.6714038e-10, cumulative = -1.0254546e-06
ExecutionTime = 277.15 s  ClockTime = 278 s

forces output:
    forces(pressure, viscous)((35.821333 -4.376585 6.4636e-18) (0.1988408 0.0047580964 4.5726636e-20))
    moment(pressure, viscous)((0.04376585 0.35821333 2.7639398e-07) (-4.7580964e-05 0.001988408 0.00030128375))

Time = 0.963

Courant Number mean: 1.36293 max: 13.575989 velocity magnitude: 242.01713
In manipulateMatrix: true bou: 123 int: 0
smoothSolver:  Solving for Ux, Initial residual = 0.027857926, Final residual = 8.8639294e-08, No Iterations 42
smoothSolver:  Solving for Uy, Initial residual = 0.052970807, Final residual = 8.2213779e-08, No Iterations 46
In manipulateMatrix: true bou: 123 int: 0
amgSolver:  Solving for p, Initial residual = 0.1204596, Final residual = 9.5322585e-08, No Iterations 27
Overset time step continuity errors : max local = 1.2300683e-05, sum local = 1.0990193e-09, global = -6.1780719e-10, cumulative = -1.0260724e-06
In manipulateMatrix: true bou: 123 int: 0
amgSolver:  Solving for p, Initial residual = 0.067034668, Final residual = 9.4176467e-08, No Iterations 26
Overset time step continuity errors : max local = 0.00016146705, sum local = 1.0644786e-09, global = 5.8331204e-10, cumulative = -1.0254891e-06
In manipulateMatrix: true bou: 123 int: 0
amgSolver:  Solving for p, Initial residual = 0.007998385, Final residual = 9.6338957e-08, No Iterations 18
Overset time step continuity errors : max local = 0.00019269181, sum local = 1.1069293e-09, global = 7.6653697e-10, cumulative = -1.0247226e-06
In manipulateMatrix: true bou: 123 int: 0
amgSolver:  Solving for p, Initial residual = 0.0035872949, Final residual = 8.4308579e-08, No Iterations 16
Overset time step continuity errors : max local = 0.00010549517, sum local = 9.6873624e-10, global = 3.6954377e-10, cumulative = -1.024353e-06
ExecutionTime = 277.32 s  ClockTime = 278 s

forces output:
    forces(pressure, viscous)((35.916099 -7.6598924 1.614072e-18) (0.19955474 -0.001356376 4.6790583e-20))
    moment(pressure, viscous)((0.076598924 0.35916099 4.3845291e-07) (1.356376e-05 0.0019955474 9.4774219e-05))

Time = 0.9635

Courant Number mean: 1.3630032 max: 13.616387 velocity magnitude: 242.7373
In manipulateMatrix: true bou: 123 int: 0
smoothSolver:  Solving for Ux, Initial residual = 0.0280006, Final residual = 9.5179362e-08, No Iterations 42
smoothSolver:  Solving for Uy, Initial residual = 0.05254083, Final residual = 9.4791186e-08, No Iterations 46
In manipulateMatrix: true bou: 123 int: 0
amgSolver:  Solving for p, Initial residual = 0.11798602, Final residual = 7.0143136e-08, No Iterations 27
Overset time step continuity errors : max local = 1.4517591e-05, sum local = 8.069423e-10, global = -4.9780601e-10, cumulative = -1.0248508e-06
In manipulateMatrix: true bou: 123 int: 0
amgSolver:  Solving for p, Initial residual = 0.062803454, Final residual = 7.7585019e-08, No Iterations 25
Overset time step continuity errors : max local = 0.00013479821, sum local = 8.9414977e-10, global = 5.501969e-10, cumulative = -1.0243006e-06
In manipulateMatrix: true bou: 123 int: 0
amgSolver:  Solving for p, Initial residual = 0.0071427338, Final residual = 5.4316087e-08, No Iterations 15
Overset time step continuity errors : max local = 5.0697856e-05, sum local = 6.2577043e-10, global = -2.6787374e-10, cumulative = -1.0245685e-06
In manipulateMatrix: true bou: 123 int: 0
amgSolver:  Solving for p, Initial residual = 0.003283389, Final residual = 8.4491112e-08, No Iterations 15
Overset time step continuity errors : max local = 5.8625986e-05, sum local = 9.7243257e-10, global = -4.1458356e-10, cumulative = -1.0249831e-06
ExecutionTime = 277.48 s  ClockTime = 278 s

forces output:
    forces(pressure, viscous)((35.736398 -9.8224433 -9.754569e-19) (0.20026712 -0.0072353286 3.4613484e-20))
    moment(pressure, viscous)((0.098224433 0.35736398 4.8535314e-07) (7.2353286e-05 0.0020026712 -0.00012646554))

Time = 0.964

Courant Number mean: 1.3628367 max: 13.699459 velocity magnitude: 244.21822
In manipulateMatrix: true bou: 123 int: 0
smoothSolver:  Solving for Ux, Initial residual = 0.027807906, Final residual = 9.8895723e-08, No Iterations 42
smoothSolver:  Solving for Uy, Initial residual = 0.051728749, Final residual = 7.5812625e-08, No Iterations 47
In manipulateMatrix: true bou: 123 int: 0
amgSolver:  Solving for p, Initial residual = 0.11147787, Final residual = 8.1942241e-08, No Iterations 16
Overset time step continuity errors : max local = 0.00014542572, sum local = 9.4814827e-10, global = 5.7939499e-10, cumulative = -1.0244037e-06
In manipulateMatrix: true bou: 123 int: 0
amgSolver:  Solving for p, Initial residual = 0.060993808, Final residual = 7.8822197e-08, No Iterations 21
Overset time step continuity errors : max local = 1.704151e-05, sum local = 9.214884e-10, global = -5.6424251e-10, cumulative = -1.0249679e-06
In manipulateMatrix: true bou: 123 int: 0
amgSolver:  Solving for p, Initial residual = 0.0071198869, Final residual = 9.5686208e-08, No Iterations 19
Overset time step continuity errors : max local = 1.9861786e-05, sum local = 1.1111127e-09, global = -7.2996333e-10, cumulative = -1.0256979e-06
In manipulateMatrix: true bou: 123 int: 0
amgSolver:  Solving for p, Initial residual = 0.0033688264, Final residual = 6.9132737e-08, No Iterations 17
Overset time step continuity errors : max local = 1.3768892e-05, sum local = 8.0152437e-10, global = -5.379208e-10, cumulative = -1.0262358e-06
ExecutionTime = 277.65 s  ClockTime = 278 s

forces output:
    forces(pressure, viscous)((35.449691 -10.82357 -1.5418049e-18) (0.20067307 -0.012071139 2.2399096e-20))
    moment(pressure, viscous)((0.1082357 0.35449691 4.6385824e-07) (0.00012071139 0.0020067307 -0.00031876286))

Time = 0.9645

Courant Number mean: 1.3625359 max: 13.751343 velocity magnitude: 245.14315
In manipulateMatrix: true bou: 123 int: 0
smoothSolver:  Solving for Ux, Initial residual = 0.02755232, Final residual = 9.6135796e-08, No Iterations 42
smoothSolver:  Solving for Uy, Initial residual = 0.051180138, Final residual = 7.7794514e-08, No Iterations 47
In manipulateMatrix: true bou: 123 int: 0
amgSolver:  Solving for p, Initial residual = 0.10512176, Final residual = 7.4691895e-08, No Iterations 24
Overset time step continuity errors : max local = 0.000131002, sum local = 8.7167189e-10, global = 5.6637178e-10, cumulative = -1.0256694e-06
In manipulateMatrix: true bou: 123 int: 0
amgSolver:  Solving for p, Initial residual = 0.060219715, Final residual = 9.3420654e-08, No Iterations 23
Overset time step continuity errors : max local = 3.0778504e-05, sum local = 1.1059642e-09, global = -7.0297462e-10, cumulative = -1.0263724e-06
In manipulateMatrix: true bou: 123 int: 0
amgSolver:  Solving for p, Initial residual = 0.007651963, Final residual = 9.1750297e-08, No Iterations 20
Overset time step continuity errors : max local = 3.1363117e-05, sum local = 1.0758155e-09, global = -7.0627972e-10, cumulative = -1.0270787e-06
In manipulateMatrix: true bou: 123 int: 0
amgSolver:  Solving for p, Initial residual = 0.0036443414, Final residual = 8.6671155e-08, No Iterations 18
Overset time step continuity errors : max local = 3.1226407e-05, sum local = 1.0138243e-09, global = -6.8724802e-10, cumulative = -1.0277659e-06
ExecutionTime = 277.81 s  ClockTime = 278 s

forces output:
    forces(pressure, viscous)((35.082006 -10.663525 -3.1201313e-19) (0.20053853 -0.015319273 2.3149158e-20))
    moment(pressure, viscous)((0.10663525 0.35082006 4.3178025e-07) (0.00015319273 0.0020053853 -0.00045541062))

Time = 0.965

Courant Number mean: 1.362225 max: 13.771175 velocity magnitude: 245.49669
In manipulateMatrix: true bou: 123 int: 0
smoothSolver:  Solving for Ux, Initial residual = 0.027308187, Final residual = 8.9433713e-08, No Iterations 42
smoothSolver:  Solving for Uy, Initial residual = 0.051105746, Final residual = 7.4212431e-08, No Iterations 47
In manipulateMatrix: true bou: 123 int: 0
amgSolver:  Solving for p, Initial residual = 0.10080211, Final residual = 7.167851e-08, No Iterations 25
Overset time step continuity errors : max local = 0.00011415259, sum local = 8.4510526e-10, global = 5.1740872e-10, cumulative = -1.0272485e-06
In manipulateMatrix: true bou: 123 int: 0
amgSolver:  Solving for p, Initial residual = 0.057997316, Final residual = 7.165421e-08, No Iterations 24
Overset time step continuity errors : max local = 2.5461393e-05, sum local = 8.5430805e-10, global = -4.9638909e-10, cumulative = -1.0277449e-06
In manipulateMatrix: true bou: 123 int: 0
amgSolver:  Solving for p, Initial residual = 0.0076178366, Final residual = 9.4320434e-08, No Iterations 20
Overset time step continuity errors : max local = 4.33913e-05, sum local = 1.1138707e-09, global = -7.1133922e-10, cumulative = -1.0284563e-06
In manipulateMatrix: true bou: 123 int: 0
amgSolver:  Solving for p, Initial residual = 0.0037914779, Final residual = 6.8530232e-08, No Iterations 19
Overset time step continuity errors : max local = 2.9420045e-05, sum local = 8.0739417e-10, global = -5.1673875e-10, cumulative = -1.028973e-06
ExecutionTime = 277.97 s  ClockTime = 279 s

forces output:
    forces(pressure, viscous)((34.738336 -9.297256 2.7235208e-18) (0.19987759 -0.01667213 2.3385518e-20))
    moment(pressure, viscous)((0.09297256 0.34738336 3.9789442e-07) (0.0001667213 0.0019987759 -0.00053112831))

Time = 0.9655

Courant Number mean: 1.361954 max: 13.761765 velocity magnitude: 245.32892
In manipulateMatrix: true bou: 123 int: 0
smoothSolver:  Solving for Ux, Initial residual = 0.027164694, Final residual = 8.2135823e-08, No Iterations 42
smoothSolver:  Solving for Uy, Initial residual = 0.051499553, Final residual = 8.9738742e-08, No Iterations 46
In manipulateMatrix: true bou: 123 int: 0
amgSolver:  Solving for p, Initial residual = 0.10278766, Final residual = 9.0358868e-08, No Iterations 34
Overset time step continuity errors : max local = 6.5620808e-05, sum local = 1.0771826e-09, global = 1.0650567e-10, cumulative = -1.0288665e-06
In manipulateMatrix: true bou: 123 int: 0
amgSolver:  Solving for p, Initial residual = 0.056434316, Final residual = 7.5228113e-08, No Iterations 26
Overset time step continuity errors : max local = 0.0001265061, sum local = 8.9432095e-10, global = 2.4329283e-10, cumulative = -1.0286232e-06
In manipulateMatrix: true bou: 123 int: 0
