/*---------------------------------------------------------------------------*\
| =========                 |                                                 |
| \\      /  F ield         | foam-extend: Open Source CFD                    |
|  \\    /   O peration     | Version:     4.1                                |
|   \\  /    A nd           | Web:         http://www.foam-extend.org         |
|    \\/     M anipulation  | For copyright notice see file Copyright         |
\*---------------------------------------------------------------------------*/
Build  : 4.1-76ec96ae2dcb
Exec   : icoFoam
Date   : Apr 07 2020
Time   : 17:30:49
Host   : "aoba"
PID    : 822
CtrlDict : "/home/mimi/foam/mimi-4.1/run/owari/cylinder/single/gmsh/1ms-2/system/controlDict"
Case   : /home/mimi/foam/mimi-4.1/run/owari/cylinder/single/gmsh/1ms-2
nProcs : 1
sigFpe : Enabling floating point exception trapping (FOAM_SIGFPE).
allowSystemOperations : Disallowing user-supplied system call operations

// * * * * * * * * * * * * * * * * * * * * * * * * * * * * * * * * * * * * * //
Create time

Create mesh for time = 0


PISO: Operating solver in PISO mode

Reading transportProperties

Reading field p

Reading field U

--> FOAM Warning :
    From function Field<Type>::Field(const word& keyword, const dictionary&, const label)
    in file /home/mimi/foam/foam-extend-4.1/src/foam/lnInclude/Field.C at line 260
    Reading "/home/mimi/foam/mimi-4.1/run/owari/cylinder/single/gmsh/1ms-2/0/U::boundaryField::top" from line 38 to line 39
    expected keyword 'uniform' or 'nonuniform', assuming deprecated Field format from Foam version 2.0.
Reading/calculating face flux field phi


Starting time loop

--> FOAM Warning :
    From function findElements::findElements(const fvMesh&)
    in file probes/probes.C at line 111
    Did not find location (0.012 0 0) in any cell. Skipping location.
--> FOAM Warning :
    From function findElements::findElements(const fvMesh&)
    in file probes/probes.C at line 111
    Did not find location (0.05 0 0) in any cell. Skipping location.
Time = 0.0005

Courant Number mean: 0.014191752 max: 0.4544415 velocity magnitude: 1
smoothSolver:  Solving for Ux, Initial residual = 1, Final residual = 4.4105731e-08, No Iterations 8
smoothSolver:  Solving for Uy, Initial residual = 0, Final residual = 0, No Iterations 1
amgSolver:  Solving for p, Initial residual = 1, Final residual = 7.579326e-08, No Iterations 32
time step continuity errors : sum local = 4.3050613e-12, global = -1.1778191e-12, cumulative = -1.1778191e-12
amgSolver:  Solving for p, Initial residual = 0.069852771, Final residual = 8.475484e-08, No Iterations 23
time step continuity errors : sum local = 4.1763429e-11, global = 6.7063922e-12, cumulative = 5.5285731e-12
amgSolver:  Solving for p, Initial residual = 0.003823663, Final residual = 6.6092754e-08, No Iterations 18
time step continuity errors : sum local = 3.1419292e-11, global = 5.0582788e-12, cumulative = 1.0586852e-11
amgSolver:  Solving for p, Initial residual = 0.00065966507, Final residual = 9.1543053e-08, No Iterations 15
time step continuity errors : sum local = 4.336151e-11, global = 6.8895719e-12, cumulative = 1.7476424e-11
ExecutionTime = 0.07 s  ClockTime = 0 s

forces output:
    forces(pressure, viscous)((13.146968 0.042840573 3.8518422e-18) (0.13952599 0.00020018023 -2.2804314e-18))
    moment(pressure, viscous)((-0.0021420287 0.6573484 1.2462535e-13) (-1.0009011e-05 0.0069762996 -6.377107e-06))

forceCoeffs output:
    Cd = 26.572988
    Cl = 0.086081507
    Cm = 0

Time = 0.001

Courant Number mean: 0.010190444 max: 0.10283893 velocity magnitude: 1.9692832
smoothSolver:  Solving for Ux, Initial residual = 0.33519753, Final residual = 1.4941725e-08, No Iterations 7
smoothSolver:  Solving for Uy, Initial residual = 0.33237644, Final residual = 1.8879672e-08, No Iterations 7
amgSolver:  Solving for p, Initial residual = 0.13373346, Final residual = 9.3744193e-08, No Iterations 28
time step continuity errors : sum local = 4.1617528e-11, global = 6.6573288e-12, cumulative = 2.4133753e-11
amgSolver:  Solving for p, Initial residual = 0.52255274, Final residual = 7.0047582e-08, No Iterations 27
time step continuity errors : sum local = 3.6634656e-12, global = -1.1593425e-12, cumulative = 2.297441e-11
amgSolver:  Solving for p, Initial residual = 0.12540437, Final residual = 9.9626652e-08, No Iterations 31
time step continuity errors : sum local = 1.0628363e-12, global = -1.0381079e-12, cumulative = 2.1936302e-11
amgSolver:  Solving for p, Initial residual = 0.014321856, Final residual = 9.7614263e-08, No Iterations 24
time step continuity errors : sum local = 1.1382304e-12, global = -1.0677808e-12, cumulative = 2.0868521e-11
ExecutionTime = 0.1 s  ClockTime = 0 s

forces output:
    forces(pressure, viscous)((0.076175544 -0.0012807812 -1.6221756e-20) (0.084762531 0.00012155012 9.3770751e-21))
    moment(pressure, viscous)((6.403906e-05 0.0038087772 6.6128353e-15) (-6.0775059e-06 0.0042381266 -3.1130365e-06))

forceCoeffs output:
    Cd = 0.32187615
    Cl = -0.0023184622
    Cm = 0

Time = 0.0015

Courant Number mean: 0.010174897 max: 0.10251513 velocity magnitude: 1.9635635
smoothSolver:  Solving for Ux, Initial residual = 0.0043409091, Final residual = 3.4465436e-08, No Iterations 5
smoothSolver:  Solving for Uy, Initial residual = 0.003401176, Final residual = 7.1687963e-08, No Iterations 4
amgSolver:  Solving for p, Initial residual = 0.18814544, Final residual = 9.9606069e-08, No Iterations 36
time step continuity errors : sum local = 1.0089263e-12, global = 1.0043524e-12, cumulative = 2.1872874e-11
amgSolver:  Solving for p, Initial residual = 0.050374298, Final residual = 1.0226491e-07, No Iterations 100
time step continuity errors : sum local = 8.8167585e-13, global = -8.8167565e-13, cumulative = 2.0991198e-11
amgSolver:  Solving for p, Initial residual = 0.0035215725, Final residual = 9.9902794e-08, No Iterations 37
time step continuity errors : sum local = 8.9988238e-13, global = -8.2480819e-13, cumulative = 2.016639e-11
amgSolver:  Solving for p, Initial residual = 0.00032697621, Final residual = 9.9419983e-08, No Iterations 40
time step continuity errors : sum local = 8.9813703e-13, global = -7.1397317e-13, cumulative = 1.9452417e-11
ExecutionTime = 0.16 s  ClockTime = 0 s

forces output:
    forces(pressure, viscous)((0.065395895 -0.0012527476 -1.594582e-20) (0.058805584 8.1992046e-05 8.8624465e-21))
    moment(pressure, viscous)((6.2637382e-05 0.0032697947 7.0527572e-15) (-4.0996023e-06 0.0029402792 -1.6949369e-06))

forceCoeffs output:
    Cd = 0.24840296
    Cl = -0.0023415112
    Cm = 0

Time = 0.002

Courant Number mean: 0.010162272 max: 0.10221767 velocity magnitude: 1.9577845
smoothSolver:  Solving for Ux, Initial residual = 0.0036826946, Final residual = 3.1559769e-08, No Iterations 5
smoothSolver:  Solving for Uy, Initial residual = 0.0031114657, Final residual = 9.8292302e-09, No Iterations 5
amgSolver:  Solving for p, Initial residual = 0.13056168, Final residual = 1.0995877e-07, No Iterations 100
time step continuity errors : sum local = 8.9109809e-13, global = 8.9109791e-13, cumulative = 2.0343515e-11
amgSolver:  Solving for p, Initial residual = 0.032665222, Final residual = 1.2272509e-07, No Iterations 100
time step continuity errors : sum local = 8.8362029e-13, global = -8.8362011e-13, cumulative = 1.9459895e-11
amgSolver:  Solving for p, Initial residual = 0.0022493608, Final residual = 1.1364423e-07, No Iterations 100
time step continuity errors : sum local = 8.4077127e-13, global = -8.407711e-13, cumulative = 1.8619124e-11
amgSolver:  Solving for p, Initial residual = 0.00020892617, Final residual = 1.0106193e-07, No Iterations 100
time step continuity errors : sum local = 7.4900536e-13, global = -7.4900522e-13, cumulative = 1.7870118e-11
ExecutionTime = 0.26 s  ClockTime = 0 s

forces output:
    forces(pressure, viscous)((0.055698033 -0.0012285697 -1.6654149e-20) (0.045554179 6.0561025e-05 9.0515698e-21))
    moment(pressure, viscous)((6.1428487e-05 0.0027849016 5.9859928e-15) (-3.0280512e-06 0.002277709 -1.0341883e-06))

forceCoeffs output:
    Cd = 0.20250442
    Cl = -0.0023360174
    Cm = 0

Time = 0.0025

Courant Number mean: 0.010151977 max: 0.10193302 velocity magnitude: 1.9533552
smoothSolver:  Solving for Ux, Initial residual = 0.0031014142, Final residual = 2.8826014e-08, No Iterations 5
smoothSolver:  Solving for Uy, Initial residual = 0.0028420867, Final residual = 1.2237709e-08, No Iterations 5
amgSolver:  Solving for p, Initial residual = 0.091436946, Final residual = 1.2884456e-07, No Iterations 100
time step continuity errors : sum local = 8.9021498e-13, global = 8.9021481e-13, cumulative = 1.8760333e-11
amgSolver:  Solving for p, Initial residual = 0.020836195, Final residual = 1.3795889e-07, No Iterations 100
time step continuity errors : sum local = 8.8151312e-13, global = -8.8151295e-13, cumulative = 1.787882e-11
amgSolver:  Solving for p, Initial residual = 0.0013987101, Final residual = 1.2729034e-07, No Iterations 100
time step continuity errors : sum local = 8.2617255e-13, global = -8.2617237e-13, cumulative = 1.7052648e-11
amgSolver:  Solving for p, Initial residual = 0.00012956131, Final residual = 1.1157783e-07, No Iterations 100
time step continuity errors : sum local = 7.2488897e-13, global = -7.2488868e-13, cumulative = 1.6327759e-11
ExecutionTime = 0.35 s  ClockTime = 0 s

forces output:
    forces(pressure, viscous)((0.049266016 -0.0011941434 -1.7212696e-20) (0.038054307 4.7618886e-05 9.2519493e-21))
    moment(pressure, viscous)((5.9707171e-05 0.0024633008 4.3201931e-15) (-2.3809443e-06 0.0019027154 -6.9927156e-07))

forceCoeffs output:
    Cd = 0.17464065
    Cl = -0.0022930491
    Cm = 0

Time = 0.003

Courant Number mean: 0.010143183 max: 0.1016659 velocity magnitude: 1.9465559
smoothSolver:  Solving for Ux, Initial residual = 0.0027030177, Final residual = 2.6614013e-08, No Iterations 5
smoothSolver:  Solving for Uy, Initial residual = 0.0026362253, Final residual = 1.3577272e-08, No Iterations 5
amgSolver:  Solving for p, Initial residual = 0.065769198, Final residual = 1.4327367e-07, No Iterations 100
time step continuity errors : sum local = 8.8923667e-13, global = 8.892365e-13, cumulative = 1.7216996e-11
amgSolver:  Solving for p, Initial residual = 0.013560145, Final residual = 1.4959143e-07, No Iterations 100
time step continuity errors : sum local = 8.7963839e-13, global = -8.7963822e-13, cumulative = 1.6337357e-11
amgSolver:  Solving for p, Initial residual = 0.00087929696, Final residual = 1.3671125e-07, No Iterations 100
time step continuity errors : sum local = 8.1099621e-13, global = -8.1099601e-13, cumulative = 1.5526361e-11
amgSolver:  Solving for p, Initial residual = 8.1449983e-05, Final residual = 1.1958389e-07, No Iterations 100
time step continuity errors : sum local = 7.0975486e-13, global = -7.0975448e-13, cumulative = 1.4816607e-11
ExecutionTime = 0.45 s  ClockTime = 0 s

forces output:
    forces(pressure, viscous)((0.044667883 -0.0011565881 -1.7705013e-20) (0.033350143 3.8985854e-05 9.4646143e-21))
    moment(pressure, viscous)((5.7829403e-05 0.0022333941 2.6215001e-15) (-1.9492927e-06 0.0016675072 -5.1289422e-07))

forceCoeffs output:
    Cd = 0.15603605
    Cl = -0.0022352044
    Cm = 0

Time = 0.0035

Courant Number mean: 0.010135464 max: 0.10141918 velocity magnitude: 1.9373954
smoothSolver:  Solving for Ux, Initial residual = 0.0024113708, Final residual = 2.4784751e-08, No Iterations 5
smoothSolver:  Solving for Uy, Initial residual = 0.002465768, Final residual = 1.4244013e-08, No Iterations 5
amgSolver:  Solving for p, Initial residual = 0.049334842, Final residual = 1.5441003e-07, No Iterations 100
time step continuity errors : sum local = 8.8872277e-13, global = 8.8872256e-13, cumulative = 1.5705329e-11
amgSolver:  Solving for p, Initial residual = 0.0091162657, Final residual = 1.5864566e-07, No Iterations 100
time step continuity errors : sum local = 8.7803884e-13, global = -8.7803865e-13, cumulative = 1.4827291e-11
amgSolver:  Solving for p, Initial residual = 0.00056884369, Final residual = 1.4308005e-07, No Iterations 100
time step continuity errors : sum local = 7.9581785e-13, global = -7.9581765e-13, cumulative = 1.4031473e-11
amgSolver:  Solving for p, Initial residual = 5.2695927e-05, Final residual = 1.2576991e-07, No Iterations 100
time step continuity errors : sum local = 6.9973084e-13, global = -6.9973037e-13, cumulative = 1.3331743e-11
ExecutionTime = 0.54 s  ClockTime = 0 s

forces output:
    forces(pressure, viscous)((0.041205729 -0.0011185334 -1.81481e-20) (0.03012144 3.2749199e-05 9.6765254e-21))
    moment(pressure, viscous)((5.5926669e-05 0.0020602864 1.0750038e-15) (-1.6374599e-06 0.001506072 -3.9985898e-07))

forceCoeffs output:
    Cd = 0.14265434
    Cl = -0.0021715684
    Cm = 0

Time = 0.004

Courant Number mean: 0.010128579 max: 0.1011945 velocity magnitude: 1.9347057
smoothSolver:  Solving for Ux, Initial residual = 0.0021881282, Final residual = 2.3218488e-08, No Iterations 5
smoothSolver:  Solving for Uy, Initial residual = 0.002319013, Final residual = 1.4514275e-08, No Iterations 5
amgSolver:  Solving for p, Initial residual = 0.038780671, Final residual = 1.6316394e-07, No Iterations 100
time step continuity errors : sum local = 8.8792578e-13, global = 8.8792561e-13, cumulative = 1.4219668e-11
amgSolver:  Solving for p, Initial residual = 0.0064117004, Final residual = 1.6591839e-07, No Iterations 100
time step continuity errors : sum local = 8.7609605e-13, global = -8.7609584e-13, cumulative = 1.3343573e-11
amgSolver:  Solving for p, Initial residual = 0.00038029283, Final residual = 1.4757212e-07, No Iterations 100
time step continuity errors : sum local = 7.8151006e-13, global = -7.8150989e-13, cumulative = 1.2562063e-11
amgSolver:  Solving for p, Initial residual = 3.5405566e-05, Final residual = 1.3078812e-07, No Iterations 100
time step continuity errors : sum local = 6.9272473e-13, global = -6.9272417e-13, cumulative = 1.1869339e-11
ExecutionTime = 0.64 s  ClockTime = 0 s

forces output:
    forces(pressure, viscous)((0.038496185 -0.001081193 -1.8545342e-20) (0.027741034 2.7965502e-05 9.877811e-21))
    moment(pressure, viscous)((5.4059649e-05 0.0019248092 -2.7692938e-16) (-1.3982751e-06 0.0013870517 -3.2547637e-07))

forceCoeffs output:
    Cd = 0.13247444
    Cl = -0.002106455
    Cm = 0

Time = 0.0045

Courant Number mean: 0.010122333 max: 0.10099255 velocity magnitude: 1.9323984
smoothSolver:  Solving for Ux, Initial residual = 0.0020083232, Final residual = 2.1831185e-08, No Iterations 5
smoothSolver:  Solving for Uy, Initial residual = 0.0021906637, Final residual = 1.4534171e-08, No Iterations 5
amgSolver:  Solving for p, Initial residual = 0.031896878, Final residual = 1.7039102e-07, No Iterations 100
time step continuity errors : sum local = 8.8755911e-13, global = 8.8755894e-13, cumulative = 1.2756897e-11
amgSolver:  Solving for p, Initial residual = 0.0047310471, Final residual = 1.7194454e-07, No Iterations 100
time step continuity errors : sum local = 8.7423145e-13, global = -8.7423126e-13, cumulative = 1.1882666e-11
amgSolver:  Solving for p, Initial residual = 0.00026418914, Final residual = 1.5090255e-07, No Iterations 100
time step continuity errors : sum local = 7.6856338e-13, global = -7.685632e-13, cumulative = 1.1114103e-11
amgSolver:  Solving for p, Initial residual = 2.4767768e-05, Final residual = 1.3499933e-07, No Iterations 100
time step continuity errors : sum local = 6.876226e-13, global = -6.8762222e-13, cumulative = 1.0426481e-11
ExecutionTime = 0.74 s  ClockTime = 1 s

forces output:
    forces(pressure, viscous)((0.036311443 -0.0010451058 -1.8898557e-20) (0.025889196 2.4135659e-05 1.0063075e-20))
    moment(pressure, viscous)((5.2255289e-05 0.0018155722 -1.4428332e-15) (-1.206783e-06 0.0012944598 -2.7326139e-07))

forceCoeffs output:
    Cd = 0.12440128
    Cl = -0.0020419402
    Cm = 0

Time = 0.005

Courant Number mean: 0.010116614 max: 0.10081329 velocity magnitude: 1.9292585
smoothSolver:  Solving for Ux, Initial residual = 0.0018585565, Final residual = 2.0577426e-08, No Iterations 5
smoothSolver:  Solving for Uy, Initial residual = 0.0020777115, Final residual = 1.4396906e-08, No Iterations 5
amgSolver:  Solving for p, Initial residual = 0.027297252, Final residual = 1.7652967e-07, No Iterations 100
time step continuity errors : sum local = 8.8701178e-13, global = 8.870116e-13, cumulative = 1.1313492e-11
amgSolver:  Solving for p, Initial residual = 0.0036551694, Final residual = 1.7715332e-07, No Iterations 100
time step continuity errors : sum local = 8.7216006e-13, global = -8.7215987e-13, cumulative = 1.0441332e-11
amgSolver:  Solving for p, Initial residual = 0.00019259256, Final residual = 1.5367087e-07, No Iterations 100
time step continuity errors : sum local = 7.5740095e-13, global = -7.5740078e-13, cumulative = 9.6839317e-12
amgSolver:  Solving for p, Initial residual = 1.8062349e-05, Final residual = 1.3874885e-07, No Iterations 100
time step continuity errors : sum local = 6.8389479e-13, global = -6.8389451e-13, cumulative = 9.0000372e-12
ExecutionTime = 0.84 s  ClockTime = 1 s

forces output:
    forces(pressure, viscous)((0.034507148 -0.0010104818 -1.9210486e-20) (0.024390436 2.0974015e-05 1.023023e-20))
    moment(pressure, viscous)((5.0524088e-05 0.0017253574 -2.4430046e-15) (-1.0487007e-06 0.0012195218 -2.347785e-07))

forceCoeffs output:
    Cd = 0.11779517
    Cl = -0.0019790155
    Cm = 0

Time = 0.0055

Courant Number mean: 0.010111333 max: 0.10065615 velocity magnitude: 1.9252892
smoothSolver:  Solving for Ux, Initial residual = 0.0017311563, Final residual = 1.9435265e-08, No Iterations 5
smoothSolver:  Solving for Uy, Initial residual = 0.0019771368, Final residual = 1.4159332e-08, No Iterations 5
amgSolver:  Solving for p, Initial residual = 0.024126848, Final residual = 1.819188e-07, No Iterations 100
time step continuity errors : sum local = 8.863701e-13, global = 8.8636993e-13, cumulative = 9.8864071e-12
amgSolver:  Solving for p, Initial residual = 0.0029425826, Final residual = 1.8165988e-07, No Iterations 100
time step continuity errors : sum local = 8.6962317e-13, global = -8.69623e-13, cumulative = 9.0167841e-12
amgSolver:  Solving for p, Initial residual = 0.00014736942, Final residual = 1.5614987e-07, No Iterations 100
time step continuity errors : sum local = 7.480985e-13, global = -7.4809832e-13, cumulative = 8.2686858e-12
amgSolver:  Solving for p, Initial residual = 1.37259e-05, Final residual = 1.4217328e-07, No Iterations 100
time step continuity errors : sum local = 6.81165e-13, global = -6.8116475e-13, cumulative = 7.5875211e-12
ExecutionTime = 0.94 s  ClockTime = 1 s

forces output:
    forces(pressure, viscous)((0.032987565 -0.00097737667 -1.9484691e-20) (0.023141345 1.8304835e-05 1.03792e-20))
    moment(pressure, viscous)((4.8868834e-05 0.0016493783 -3.3008429e-15) (-9.1524176e-07 0.0011570672 -2.0537378e-07))

forceCoeffs output:
    Cd = 0.11225782
    Cl = -0.0019181437
    Cm = 0

Time = 0.006

Courant Number mean: 0.010106426 max: 0.10052018 velocity magnitude: 1.9205136
smoothSolver:  Solving for Ux, Initial residual = 0.0016215042, Final residual = 1.8386445e-08, No Iterations 5
smoothSolver:  Solving for Uy, Initial residual = 0.001885883, Final residual = 1.3859394e-08, No Iterations 5
amgSolver:  Solving for p, Initial residual = 0.021771196, Final residual = 1.8682455e-07, No Iterations 100
time step continuity errors : sum local = 8.8601754e-13, global = 8.8601735e-13, cumulative = 8.4735384e-12
amgSolver:  Solving for p, Initial residual = 0.0024597555, Final residual = 1.8566423e-07, No Iterations 100
time step continuity errors : sum local = 8.6687754e-13, global = -8.6687738e-13, cumulative = 7.606661e-12
amgSolver:  Solving for p, Initial residual = 0.00011661871, Final residual = 1.5850751e-07, No Iterations 100
time step continuity errors : sum local = 7.4053401e-13, global = -7.4053382e-13, cumulative = 6.8661272e-12
amgSolver:  Solving for p, Initial residual = 1.0821965e-05, Final residual = 1.4536793e-07, No Iterations 100
time step continuity errors : sum local = 6.7916918e-13, global = -6.79169e-13, cumulative = 6.1869582e-12
ExecutionTime = 1.03 s  ClockTime = 1 s

forces output:
    forces(pressure, viscous)((0.031686853 -0.00094575537 -1.9725037e-20) (0.022076987 1.6013155e-05 1.0510953e-20))
    moment(pressure, viscous)((4.7287769e-05 0.0015843426 -4.0371444e-15) (-8.0065773e-07 0.0011038494 -1.8228327e-07))

forceCoeffs output:
    Cd = 0.10752768
    Cl = -0.0018594844
    Cm = 0

Time = 0.0065

Courant Number mean: 0.010101837 max: 0.10040417 velocity magnitude: 1.9149697
smoothSolver:  Solving for Ux, Initial residual = 0.0015262862, Final residual = 1.7418854e-08, No Iterations 5
smoothSolver:  Solving for Uy, Initial residual = 0.001802498, Final residual = 1.3521439e-08, No Iterations 5
amgSolver:  Solving for p, Initial residual = 0.019977588, Final residual = 1.9133632e-07, No Iterations 100
time step continuity errors : sum local = 8.8565025e-13, global = 8.8565008e-13, cumulative = 7.0726083e-12
amgSolver:  Solving for p, Initial residual = 0.0021270925, Final residual = 1.8925924e-07, No Iterations 100
time step continuity errors : sum local = 8.637326e-13, global = -8.6373241e-13, cumulative = 6.2088759e-12
amgSolver:  Solving for p, Initial residual = 9.5083586e-05, Final residual = 1.6085995e-07, No Iterations 100
time step continuity errors : sum local = 7.3448708e-13, global = -7.344869e-13, cumulative = 5.474389e-12
amgSolver:  Solving for p, Initial residual = 8.8212827e-06, Final residual = 1.484251e-07, No Iterations 100
time step continuity errors : sum local = 6.7772841e-13, global = -6.7772822e-13, cumulative = 4.7966608e-12
ExecutionTime = 1.13 s  ClockTime = 1 s

forces output:
    forces(pressure, viscous)((0.030558344 -0.00091554284 -1.9935351e-20) (0.021154308 1.4019854e-05 1.0626937e-20))
    moment(pressure, viscous)((4.5777142e-05 0.0015279172 -4.6719216e-15) (-7.0099269e-07 0.0010577154 -1.6376211e-07))

forceCoeffs output:
    Cd = 0.1034253
    Cl = -0.001803046
    Cm = 0

Time = 0.007

Courant Number mean: 0.010097522 max: 0.10030674 velocity magnitude: 1.9090915
smoothSolver:  Solving for Ux, Initial residual = 0.0014423773, Final residual = 1.652211e-08, No Iterations 5
smoothSolver:  Solving for Uy, Initial residual = 0.0017259714, Final residual = 1.3161922e-08, No Iterations 5
amgSolver:  Solving for p, Initial residual = 0.018518052, Final residual = 1.9551076e-07, No Iterations 100
time step continuity errors : sum local = 8.8508674e-13, global = 8.8508653e-13, cumulative = 5.6817473e-12
amgSolver:  Solving for p, Initial residual = 0.001887, Final residual = 1.9241447e-07, No Iterations 100
time step continuity errors : sum local = 8.5990639e-13, global = -8.5990621e-13, cumulative = 4.8218411e-12
amgSolver:  Solving for p, Initial residual = 7.953864e-05, Final residual = 1.6321167e-07, No Iterations 100
time step continuity errors : sum local = 7.2970856e-13, global = -7.2970838e-13, cumulative = 4.0921327e-12
amgSolver:  Solving for p, Initial residual = 7.410204e-06, Final residual = 1.5135369e-07, No Iterations 100
time step continuity errors : sum local = 6.7670812e-13, global = -6.7670796e-13, cumulative = 3.4154247e-12
ExecutionTime = 1.24 s  ClockTime = 1 s

forces output:
    forces(pressure, viscous)((0.029568073 -0.00088664589 -2.0119218e-20) (0.020343438 1.2268217e-05 1.0728748e-20))
    moment(pressure, viscous)((4.4332295e-05 0.0014784037 -5.2214066e-15) (-6.1341083e-07 0.0010171719 -1.4865233e-07))

forceCoeffs output:
    Cd = 0.099823022
    Cl = -0.0017487553
    Cm = 0

Time = 0.0075

Courant Number mean: 0.010093452 max: 0.10022645 velocity magnitude: 1.9079538
smoothSolver:  Solving for Ux, Initial residual = 0.0013677971, Final residual = 1.5689625e-08, No Iterations 5
smoothSolver:  Solving for Uy, Initial residual = 0.0016558348, Final residual = 1.2792035e-08, No Iterations 5
amgSolver:  Solving for p, Initial residual = 0.017303077, Final residual = 1.9941937e-07, No Iterations 100
time step continuity errors : sum local = 8.8454347e-13, global = 8.8454329e-13, cumulative = 4.299968e-12
amgSolver:  Solving for p, Initial residual = 0.001703456, Final residual = 1.9512719e-07, No Iterations 100
time step continuity errors : sum local = 8.5532429e-13, global = -8.5532412e-13, cumulative = 3.4446439e-12
amgSolver:  Solving for p, Initial residual = 6.7979113e-05, Final residual = 1.6555576e-07, No Iterations 100
time step continuity errors : sum local = 7.2595147e-13, global = -7.259513e-13, cumulative = 2.7186926e-12
amgSolver:  Solving for p, Initial residual = 6.3829138e-06, Final residual = 1.5415884e-07, No Iterations 100
time step continuity errors : sum local = 6.7599073e-13, global = -6.7599053e-13, cumulative = 2.0427021e-12
ExecutionTime = 1.35 s  ClockTime = 1 s

forces output:
    forces(pressure, viscous)((0.028690743 -0.00085899604 -2.027993e-20) (0.019622863 1.0716098e-05 1.0817985e-20))
    moment(pressure, viscous)((4.2949802e-05 0.0014345372 -5.6989896e-15) (-5.3580492e-07 0.00098114316 -1.3615405e-07))

forceCoeffs output:
    Cd = 0.096627213
    Cl = -0.0016965599
    Cm = 0

Time = 0.008

Courant Number mean: 0.0100896 max: 0.1001618 velocity magnitude: 1.9065081
smoothSolver:  Solving for Ux, Initial residual = 0.0013009422, Final residual = 1.4915593e-08, No Iterations 5
smoothSolver:  Solving for Uy, Initial residual = 0.0015912796, Final residual = 1.2420079e-08, No Iterations 5
amgSolver:  Solving for p, Initial residual = 0.016254628, Final residual = 2.0313956e-07, No Iterations 100
time step continuity errors : sum local = 8.8417883e-13, global = 8.8417866e-13, cumulative = 2.9268807e-12
amgSolver:  Solving for p, Initial residual = 0.0015594117, Final residual = 1.9740832e-07, No Iterations 100
time step continuity errors : sum local = 8.4992e-13, global = -8.4991982e-13, cumulative = 2.0769609e-12
amgSolver:  Solving for p, Initial residual = 5.9282391e-05, Final residual = 1.6786653e-07, No Iterations 100
time step continuity errors : sum local = 7.2295245e-13, global = -7.2295228e-13, cumulative = 1.3540086e-12
amgSolver:  Solving for p, Initial residual = 5.6138346e-06, Final residual = 1.5683363e-07, No Iterations 100
time step continuity errors : sum local = 6.7544981e-13, global = -6.7544965e-13, cumulative = 6.7855898e-13
ExecutionTime = 1.45 s  ClockTime = 1 s

forces output:
    forces(pressure, viscous)((0.027907079 -0.00083247715 -2.0420342e-20) (0.018976601 9.331504e-06 1.0896103e-20))
    moment(pressure, viscous)((4.1623858e-05 0.0013953539 -6.1150877e-15) (-4.665752e-07 0.00094883004 -1.256979e-07))

forceCoeffs output:
    Cd = 0.093767359
    Cl = -0.0016462913
    Cm = 0

Time = 0.0085

Courant Number mean: 0.010085946 max: 0.10011133 velocity magnitude: 1.9047542
smoothSolver:  Solving for Ux, Initial residual = 0.0012406429, Final residual = 1.4194518e-08, No Iterations 5
smoothSolver:  Solving for Uy, Initial residual = 0.0015314157, Final residual = 1.2051158e-08, No Iterations 5
amgSolver:  Solving for p, Initial residual = 0.015369191, Final residual = 2.0663402e-07, No Iterations 100
time step continuity errors : sum local = 8.8385169e-13, global = 8.8385154e-13, cumulative = 1.5624105e-12
amgSolver:  Solving for p, Initial residual = 0.0014410951, Final residual = 1.9917428e-07, No Iterations 100
time step continuity errors : sum local = 8.4349034e-13, global = -8.4349018e-13, cumulative = 7.1892034e-13
amgSolver:  Solving for p, Initial residual = 5.2443914e-05, Final residual = 1.7006847e-07, No Iterations 100
time step continuity errors : sum local = 7.2042641e-13, global = -7.2042624e-13, cumulative = -1.505893e-15
amgSolver:  Solving for p, Initial residual = 5.0211145e-06, Final residual = 1.5932916e-07, No Iterations 100
time step continuity errors : sum local = 6.7494549e-13, global = -6.7494529e-13, cumulative = -6.7645118e-13
ExecutionTime = 1.55 s  ClockTime = 1 s

forces output:
    forces(pressure, viscous)((0.027202121 -0.00080698632 -2.0542963e-20) (0.018392463 8.0895588e-06 1.096442e-20))
    moment(pressure, viscous)((4.0349316e-05 0.001360106 -6.4787568e-15) (-4.0447794e-07 0.00091962313 -1.168666e-07))

forceCoeffs output:
    Cd = 0.091189167
    Cl = -0.0015977935
    Cm = 0

Time = 0.009

Courant Number mean: 0.010082467 max: 0.10007361 velocity magnitude: 1.9026949
smoothSolver:  Solving for Ux, Initial residual = 0.0011858903, Final residual = 1.352164e-08, No Iterations 5
smoothSolver:  Solving for Uy, Initial residual = 0.0014758295, Final residual = 9.8461705e-08, No Iterations 4
amgSolver:  Solving for p, Initial residual = 0.014651707, Final residual = 2.0988847e-07, No Iterations 100
time step continuity errors : sum local = 8.8341215e-13, global = 8.8341196e-13, cumulative = 2.0696078e-13
amgSolver:  Solving for p, Initial residual = 0.0013463946, Final residual = 2.0075291e-07, No Iterations 100
time step continuity errors : sum local = 8.3719603e-13, global = -8.3719587e-13, cumulative = -6.3023509e-13
amgSolver:  Solving for p, Initial residual = 4.788136e-05, Final residual = 1.7235307e-07, No Iterations 100
time step continuity errors : sum local = 7.1896091e-13, global = -7.1896072e-13, cumulative = -1.3491958e-12
amgSolver:  Solving for p, Initial residual = 4.5436781e-06, Final residual = 1.6172255e-07, No Iterations 100
time step continuity errors : sum local = 6.7462852e-13, global = -6.7462833e-13, cumulative = -2.0238241e-12
ExecutionTime = 1.64 s  ClockTime = 1 s

forces output:
    forces(pressure, viscous)((0.026564031 -0.00078248317 -2.0650003e-20) (0.017860951 6.970461e-06 1.102412e-20))
    moment(pressure, viscous)((3.9124159e-05 0.0013282016 -6.7978972e-15) (-3.4852305e-07 0.00089304755 -1.0928065e-07))

forceCoeffs output:
    Cd = 0.088849964
    Cl = -0.0015510254
    Cm = 0

Time = 0.0095

Courant Number mean: 0.010079143 max: 0.10004726 velocity magnitude: 1.9003356
smoothSolver:  Solving for Ux, Initial residual = 0.0011360186, Final residual = 1.2892487e-08, No Iterations 5
smoothSolver:  Solving for Uy, Initial residual = 0.0014240282, Final residual = 9.4837407e-08, No Iterations 4
amgSolver:  Solving for p, Initial residual = 0.013997655, Final residual = 2.1292993e-07, No Iterations 100
time step continuity errors : sum local = 8.8286127e-13, global = 8.8286108e-13, cumulative = -1.1409631e-12
amgSolver:  Solving for p, Initial residual = 0.0012608565, Final residual = 2.0150725e-07, No Iterations 100
time step continuity errors : sum local = 8.2833553e-13, global = -8.2833535e-13, cumulative = -1.9692984e-12
amgSolver:  Solving for p, Initial residual = 4.340464e-05, Final residual = 1.7425879e-07, No Iterations 100
time step continuity errors : sum local = 7.1649568e-13, global = -7.1649553e-13, cumulative = -2.6857939e-12
amgSolver:  Solving for p, Initial residual = 4.1731087e-06, Final residual = 1.6388014e-07, No Iterations 100
time step continuity errors : sum local = 6.7383345e-13, global = -6.7383326e-13, cumulative = -3.3596272e-12
ExecutionTime = 1.75 s  ClockTime = 2 s

forces output:
    forces(pressure, viscous)((0.0259834 -0.00075885756 -2.0743345e-20) (0.01737452 5.9580975e-06 1.1076221e-20))
    moment(pressure, viscous)((3.7942878e-05 0.00129917 -7.0788621e-15) (-2.9790487e-07 0.00086872598 -1.0279434e-07))

forceCoeffs output:
    Cd = 0.08671584
    Cl = -0.0015057989
    Cm = 0

Time = 0.01

Courant Number mean: 0.010075958 max: 0.100031 velocity magnitude: 1.8976841
smoothSolver:  Solving for Ux, Initial residual = 0.0010905753, Final residual = 9.8520708e-08, No Iterations 4
smoothSolver:  Solving for Uy, Initial residual = 0.0013756406, Final residual = 9.1371592e-08, No Iterations 4
amgSolver:  Solving for p, Initial residual = 0.013379201, Final residual = 2.1579835e-07, No Iterations 100
time step continuity errors : sum local = 8.8234079e-13, global = 8.8234061e-13, cumulative = -2.4772866e-12
amgSolver:  Solving for p, Initial residual = 0.001176343, Final residual = 2.0307737e-07, No Iterations 100
time step continuity errors : sum local = 8.237753e-13, global = -8.2377511e-13, cumulative = -3.3010617e-12
amgSolver:  Solving for p, Initial residual = 3.9191219e-05, Final residual = 1.7636056e-07, No Iterations 100
time step continuity errors : sum local = 7.1555661e-13, global = -7.1555643e-13, cumulative = -4.0166181e-12
amgSolver:  Solving for p, Initial residual = 4.07803e-06, Final residual = 1.6575192e-07, No Iterations 100
time step continuity errors : sum local = 6.7252553e-13, global = -6.7252536e-13, cumulative = -4.6891435e-12
ExecutionTime = 1.85 s  ClockTime = 2 s

forces output:
    forces(pressure, viscous)((0.025452468 -0.00073603665 -2.0824656e-20) (0.016927091 5.0396907e-06 1.1121635e-20))
    moment(pressure, viscous)((3.6801832e-05 0.0012726234 -7.32686e-15) (-2.5198453e-07 0.00084635455 -9.7003403e-08))

forceCoeffs output:
    Cd = 0.084759118
    Cl = -0.0014619939
    Cm = 0

Time = 0.0105

Courant Number mean: 0.010072908 max: 0.10002362 velocity magnitude: 1.89475
smoothSolver:  Solving for Ux, Initial residual = 0.0010491228, Final residual = 9.3666478e-08, No Iterations 4
smoothSolver:  Solving for Uy, Initial residual = 0.0013303497, Final residual = 8.8065045e-08, No Iterations 4
amgSolver:  Solving for p, Initial residual = 0.012807314, Final residual = 2.185135e-07, No Iterations 100
time step continuity errors : sum local = 8.8188685e-13, global = 8.8188669e-13, cumulative = -3.8072568e-12
amgSolver:  Solving for p, Initial residual = 0.0011096093, Final residual = 2.0293836e-07, No Iterations 100
time step continuity errors : sum local = 8.1297328e-13, global = -8.129731e-13, cumulative = -4.6202299e-12
amgSolver:  Solving for p, Initial residual = 3.6035381e-05, Final residual = 1.7781425e-07, No Iterations 100
time step continuity errors : sum local = 7.1247636e-13, global = -7.1247615e-13, cumulative = -5.332706e-12
amgSolver:  Solving for p, Initial residual = 3.8065831e-06, Final residual = 1.6753491e-07, No Iterations 100
time step continuity errors : sum local = 6.7129981e-13, global = -6.7129959e-13, cumulative = -6.0040056e-12
ExecutionTime = 1.95 s  ClockTime = 2 s

forces output:
    forces(pressure, viscous)((0.024965003 -0.00071395893 -2.0895327e-20) (0.016513675 4.2041073e-06 1.1161127e-20))
    moment(pressure, viscous)((3.5697946e-05 0.0012482502 -7.545785e-15) (-2.1020536e-07 0.00082568374 -9.2044564e-08))

forceCoeffs output:
    Cd = 0.082957356
    Cl = -0.0014195096
    Cm = 0

Time = 0.011

Courant Number mean: 0.010069981 max: 0.10002402 velocity magnitude: 1.8915442
smoothSolver:  Solving for Ux, Initial residual = 0.0010111397, Final residual = 8.9154662e-08, No Iterations 4
smoothSolver:  Solving for Uy, Initial residual = 0.0012880183, Final residual = 8.4916297e-08, No Iterations 4
amgSolver:  Solving for p, Initial residual = 0.012274812, Final residual = 2.211084e-07, No Iterations 100
time step continuity errors : sum local = 8.814913e-13, global = 8.8149113e-13, cumulative = -5.1225145e-12
amgSolver:  Solving for p, Initial residual = 0.0010494142, Final residual = 2.0217128e-07, No Iterations 100
time step continuity errors : sum local = 8.0040801e-13, global = -8.0040783e-13, cumulative = -5.9229223e-12
amgSolver:  Solving for p, Initial residual = 3.330464e-05, Final residual = 1.7904199e-07, No Iterations 100
time step continuity errors : sum local = 7.0897997e-13, global = -7.0897976e-13, cumulative = -6.6319021e-12
amgSolver:  Solving for p, Initial residual = 3.572079e-06, Final residual = 1.6911605e-07, No Iterations 100
time step continuity errors : sum local = 6.6968549e-13, global = -6.6968533e-13, cumulative = -7.3015874e-12
ExecutionTime = 2.06 s  ClockTime = 2 s

forces output:
    forces(pressure, viscous)((0.024515677 -0.00069257921 -2.0956611e-20) (0.016130152 3.4422935e-06 1.1195388e-20))
    moment(pressure, viscous)((3.462896e-05 0.0012257838 -7.7390367e-15) (-1.7211467e-07 0.00080650759 -8.7760312e-08))

forceCoeffs output:
    Cd = 0.081291657
    Cl = -0.0013782738
    Cm = 0

Time = 0.0115

Courant Number mean: 0.01006716 max: 0.10003116 velocity magnitude: 1.8880791
smoothSolver:  Solving for Ux, Initial residual = 0.00097621158, Final residual = 8.4955116e-08, No Iterations 4
smoothSolver:  Solving for Uy, Initial residual = 0.0012482052, Final residual = 8.1920829e-08, No Iterations 4
amgSolver:  Solving for p, Initial residual = 0.011779453, Final residual = 2.2357326e-07, No Iterations 100
time step continuity errors : sum local = 8.8106493e-13, global = 8.8106477e-13, cumulative = -6.4205227e-12
amgSolver:  Solving for p, Initial residual = 0.00099491794, Final residual = 2.0073645e-07, No Iterations 100
time step continuity errors : sum local = 7.8589688e-13, global = -7.858967e-13, cumulative = -7.2064194e-12
amgSolver:  Solving for p, Initial residual = 3.0913494e-05, Final residual = 1.8000978e-07, No Iterations 100
time step continuity errors : sum local = 7.0487863e-13, global = -7.0487839e-13, cumulative = -7.9112978e-12
amgSolver:  Solving for p, Initial residual = 3.3663233e-06, Final residual = 1.7047681e-07, No Iterations 100
time step continuity errors : sum local = 6.6755987e-13, global = -6.6755971e-13, cumulative = -8.5788575e-12
ExecutionTime = 2.16 s  ClockTime = 2 s

forces output:
    forces(pressure, viscous)((0.024100069 -0.00067185497 -2.1009574e-20) (0.015773075 2.746544e-06 1.1225009e-20))
    moment(pressure, viscous)((3.3592748e-05 0.0012050035 -7.9100893e-15) (-1.373272e-07 0.00078865373 -8.403666e-08))

forceCoeffs output:
    Cd = 0.079746288
    Cl = -0.0013382168
    Cm = 0

Time = 0.012

Courant Number mean: 0.010064439 max: 0.10004412 velocity magnitude: 1.884377
smoothSolver:  Solving for Ux, Initial residual = 0.00094397764, Final residual = 8.104125e-08, No Iterations 4
smoothSolver:  Solving for Uy, Initial residual = 0.0012107879, Final residual = 7.9072224e-08, No Iterations 4
amgSolver:  Solving for p, Initial residual = 0.011317741, Final residual = 2.2589012e-07, No Iterations 100
time step continuity errors : sum local = 8.8055047e-13, global = 8.8055028e-13, cumulative = -7.6983072e-12
amgSolver:  Solving for p, Initial residual = 0.00094501158, Final residual = 1.9856865e-07, No Iterations 100
time step continuity errors : sum local = 7.6933868e-13, global = -7.6933851e-13, cumulative = -8.4676457e-12
amgSolver:  Solving for p, Initial residual = 2.8792963e-05, Final residual = 1.8063976e-07, No Iterations 100
time step continuity errors : sum local = 6.999941e-13, global = -6.9999385e-13, cumulative = -9.1676395e-12
amgSolver:  Solving for p, Initial residual = 3.182977e-06, Final residual = 1.7155413e-07, No Iterations 100
time step continuity errors : sum local = 6.6479629e-13, global = -6.6479611e-13, cumulative = -9.8324356e-12
ExecutionTime = 2.26 s  ClockTime = 2 s

forces output:
    forces(pressure, viscous)((0.023714433 -0.00065175007 -2.1055146e-20) (0.015439532 2.1102465e-06 1.1250502e-20))
    moment(pressure, viscous)((3.2587504e-05 0.0011857217 -8.0614327e-15) (-1.0551232e-07 0.00077197661 -8.0786395e-08))

forceCoeffs output:
    Cd = 0.078307931
    Cl = -0.0012992797
    Cm = 0

Time = 0.0125

Courant Number mean: 0.010061811 max: 0.10006206 velocity magnitude: 1.8804474
smoothSolver:  Solving for Ux, Initial residual = 0.00091421751, Final residual = 7.7388491e-08, No Iterations 4
smoothSolver:  Solving for Uy, Initial residual = 0.0011756674, Final residual = 7.6363957e-08, No Iterations 4
amgSolver:  Solving for p, Initial residual = 0.01088015, Final residual = 2.2805061e-07, No Iterations 100
time step continuity errors : sum local = 8.7994537e-13, global = 8.799452e-13, cumulative = -8.9524904e-12
amgSolver:  Solving for p, Initial residual = 0.00089903312, Final residual = 1.9567749e-07, No Iterations 100
time step continuity errors : sum local = 7.5071276e-13, global = -7.5071244e-13, cumulative = -9.7032029e-12
amgSolver:  Solving for p, Initial residual = 2.6901064e-05, Final residual = 1.8091124e-07, No Iterations 100
time step continuity errors : sum local = 6.9416195e-13, global = -6.9416166e-13, cumulative = -1.0397365e-11
amgSolver:  Solving for p, Initial residual = 3.0183416e-06, Final residual = 1.7233557e-07, No Iterations 100
time step continuity errors : sum local = 6.6126596e-13, global = -6.6126576e-13, cumulative = -1.105863e-11
ExecutionTime = 2.36 s  ClockTime = 2 s

forces output:
    forces(pressure, viscous)((0.023355569 -0.00063223355 -2.1094136e-20) (0.015127046 1.5276819e-06 1.1272319e-20))
    moment(pressure, viscous)((3.1611678e-05 0.0011677785 -8.1954813e-15) (-7.6384093e-08 0.0007563523 -7.7940313e-08))

forceCoeffs output:
    Cd = 0.07696523
    Cl = -0.0012614117
    Cm = 0

Time = 0.013

Courant Number mean: 0.010059271 max: 0.1000842 velocity magnitude: 1.8771687
smoothSolver:  Solving for Ux, Initial residual = 0.00088657015, Final residual = 7.3975265e-08, No Iterations 4
smoothSolver:  Solving for Uy, Initial residual = 0.0011425631, Final residual = 7.3791196e-08, No Iterations 4
amgSolver:  Solving for p, Initial residual = 0.010471115, Final residual = 2.3009593e-07, No Iterations 100
time step continuity errors : sum local = 8.7928559e-13, global = 8.7928542e-13, cumulative = -1.0179345e-11
amgSolver:  Solving for p, Initial residual = 0.00085683831, Final residual = 1.920912e-07, No Iterations 100
time step continuity errors : sum local = 7.3009181e-13, global = -7.3008835e-13, cumulative = -1.0909433e-11
amgSolver:  Solving for p, Initial residual = 2.5200329e-05, Final residual = 1.8079258e-07, No Iterations 100
time step continuity errors : sum local = 6.8724011e-13, global = -6.8723976e-13, cumulative = -1.1596673e-11
amgSolver:  Solving for p, Initial residual = 2.8693284e-06, Final residual = 1.727943e-07, No Iterations 100
time step continuity errors : sum local = 6.5684512e-13, global = -6.5684496e-13, cumulative = -1.2253518e-11
ExecutionTime = 2.46 s  ClockTime = 2 s

forces output:
    forces(pressure, viscous)((0.023020726 -0.00061327879 -2.1127253e-20) (0.014833492 9.9385633e-07 1.1290849e-20))
    moment(pressure, viscous)((3.066394e-05 0.0011510363 -8.3140474e-15) (-4.9692816e-08 0.00074167459 -7.5435226e-08))

forceCoeffs output:
    Cd = 0.075708436
    Cl = -0.0012245699
    Cm = 0

Time = 0.0135

Courant Number mean: 0.010056828 max: 0.10010988 velocity magnitude: 1.8762561
smoothSolver:  Solving for Ux, Initial residual = 0.00086076588, Final residual = 7.0780921e-08, No Iterations 4
smoothSolver:  Solving for Uy, Initial residual = 0.0011113811, Final residual = 7.1345062e-08, No Iterations 4
amgSolver:  Solving for p, Initial residual = 0.010084339, Final residual = 2.320252e-07, No Iterations 100
time step continuity errors : sum local = 8.7861325e-13, global = 8.7861308e-13, cumulative = -1.1374905e-11
amgSolver:  Solving for p, Initial residual = 0.00081832357, Final residual = 1.8791445e-07, No Iterations 100
time step continuity errors : sum local = 7.0799846e-13, global = -7.0760874e-13, cumulative = -1.2082514e-11
amgSolver:  Solving for p, Initial residual = 2.3671727e-05, Final residual = 1.8022527e-07, No Iterations 100
time step continuity errors : sum local = 6.7911344e-13, global = -6.7911052e-13, cumulative = -1.2761624e-11
amgSolver:  Solving for p, Initial residual = 2.7333628e-06, Final residual = 1.7287267e-07, No Iterations 100
time step continuity errors : sum local = 6.5141588e-13, global = -6.514157e-13, cumulative = -1.341304e-11
ExecutionTime = 2.55 s  ClockTime = 2 s

forces output:
    forces(pressure, viscous)((0.02270753 -0.00059486756 -2.1155114e-20) (0.014557034 5.0439402e-07 1.1306439e-20))
    moment(pressure, viscous)((2.9743378e-05 0.0011353765 -8.4185775e-15) (-2.5219701e-08 0.00072785171 -7.3236759e-08))

forceCoeffs output:
    Cd = 0.074529127
    Cl = -0.0011887263
    Cm = 0

Time = 0.014

Courant Number mean: 0.010054467 max: 0.10013849 velocity magnitude: 1.8752244
smoothSolver:  Solving for Ux, Initial residual = 0.00083669945, Final residual = 6.7788534e-08, No Iterations 4
smoothSolver:  Solving for Uy, Initial residual = 0.0010817768, Final residual = 6.9019613e-08, No Iterations 4
amgSolver:  Solving for p, Initial residual = 0.0097164525, Final residual = 2.3382874e-07, No Iterations 100
time step continuity errors : sum local = 8.7794686e-13, global = 8.7794669e-13, cumulative = -1.2535093e-11
amgSolver:  Solving for p, Initial residual = 0.00078377141, Final residual = 1.8372223e-07, No Iterations 100
time step continuity errors : sum local = 6.8659065e-13, global = -6.8350658e-13, cumulative = -1.32186e-11
amgSolver:  Solving for p, Initial residual = 2.2290333e-05, Final residual = 1.7919207e-07, No Iterations 100
time step continuity errors : sum local = 6.6974038e-13, global = -6.6969865e-13, cumulative = -1.3888298e-11
amgSolver:  Solving for p, Initial residual = 2.6087839e-06, Final residual = 1.7253817e-07, No Iterations 100
time step continuity errors : sum local = 6.4487852e-13, global = -6.4487836e-13, cumulative = -1.4533177e-11
ExecutionTime = 2.65 s  ClockTime = 2 s

forces output:
    forces(pressure, viscous)((0.022413903 -0.000576976 -2.1178275e-20) (0.014296077 5.5624226e-08 1.1319391e-20))
    moment(pressure, viscous)((2.88488e-05 0.0011206951 -8.5099725e-15) (-2.7812113e-09 0.00071480383 -7.1342147e-08))

forceCoeffs output:
    Cd = 0.073419959
    Cl = -0.0011538407
    Cm = 0

Time = 0.0145

Courant Number mean: 0.010052184 max: 0.10016949 velocity magnitude: 1.8740747
smoothSolver:  Solving for Ux, Initial residual = 0.00081423326, Final residual = 6.4982698e-08, No Iterations 4
smoothSolver:  Solving for Uy, Initial residual = 0.0010536234, Final residual = 6.680966e-08, No Iterations 4
amgSolver:  Solving for p, Initial residual = 0.0093732421, Final residual = 2.3551725e-07, No Iterations 100
time step continuity errors : sum local = 8.7726967e-13, global = 8.7726951e-13, cumulative = -1.3655907e-11
amgSolver:  Solving for p, Initial residual = 0.00075278212, Final residual = 1.7975547e-07, No Iterations 100
time step continuity errors : sum local = 6.6662585e-13, global = -6.5802169e-13, cumulative = -1.4313929e-11
amgSolver:  Solving for p, Initial residual = 2.1032986e-05, Final residual = 1.7772712e-07, No Iterations 100
time step continuity errors : sum local = 6.5918048e-13, global = -6.5894798e-13, cumulative = -1.4972877e-11
amgSolver:  Solving for p, Initial residual = 2.4939708e-06, Final residual = 1.7178461e-07, No Iterations 100
time step continuity errors : sum local = 6.3714696e-13, global = -6.3714677e-13, cumulative = -1.5610024e-11
ExecutionTime = 2.75 s  ClockTime = 3 s

forces output:
    forces(pressure, viscous)((0.022138035 -0.00055958571 -2.1197213e-20) (0.014049227 -3.5596391e-07 1.1329969e-20))
    moment(pressure, viscous)((2.7979285e-05 0.0011069017 -8.5892078e-15) (1.7798195e-08 0.00070246135 -6.9702235e-08))

forceCoeffs output:
    Cd = 0.072374524
    Cl = -0.0011198833
    Cm = 0

Time = 0.015

Courant Number mean: 0.010049966 max: 0.10020241 velocity magnitude: 1.8728087
smoothSolver:  Solving for Ux, Initial residual = 0.00079332922, Final residual = 6.2347606e-08, No Iterations 4
smoothSolver:  Solving for Uy, Initial residual = 0.0010267296, Final residual = 6.4707018e-08, No Iterations 4
amgSolver:  Solving for p, Initial residual = 0.009048055, Final residual = 2.3710374e-07, No Iterations 100
time step continuity errors : sum local = 8.765434e-13, global = 8.7654322e-13, cumulative = -1.473348e-11
amgSolver:  Solving for p, Initial residual = 0.00072463793, Final residual = 1.7605797e-07, No Iterations 100
time step continuity errors : sum local = 6.4816089e-13, global = -6.3139326e-13, cumulative = -1.5364874e-11
amgSolver:  Solving for p, Initial residual = 1.9882165e-05, Final residual = 1.7587573e-07, No Iterations 100
time step continuity errors : sum local = 6.4756457e-13, global = -6.4682394e-13, cumulative = -1.6011698e-11
amgSolver:  Solving for p, Initial residual = 2.3881159e-06, Final residual = 1.7060159e-07, No Iterations 100
time step continuity errors : sum local = 6.2815188e-13, global = -6.2815168e-13, cumulative = -1.6639849e-11
ExecutionTime = 2.85 s  ClockTime = 3 s

forces output:
    forces(pressure, viscous)((0.021878336 -0.00054268127 -2.1212343e-20) (0.013815263 -7.335216e-07 1.1338415e-20))
    moment(pressure, viscous)((2.7134063e-05 0.0010939168 -8.6583992e-15) (3.667608e-08 0.00069076313 -6.8269911e-08))

forceCoeffs output:
    Cd = 0.071387198
    Cl = -0.0010868296
    Cm = 0

Time = 0.0155

Courant Number mean: 0.01004781 max: 0.10023684 velocity magnitude: 1.8714283
smoothSolver:  Solving for Ux, Initial residual = 0.00077379381, Final residual = 5.9870557e-08, No Iterations 4
smoothSolver:  Solving for Uy, Initial residual = 0.0010011608, Final residual = 6.2706676e-08, No Iterations 4
amgSolver:  Solving for p, Initial residual = 0.0087463664, Final residual = 2.3859624e-07, No Iterations 100
time step continuity errors : sum local = 8.7572874e-13, global = 8.7572857e-13, cumulative = -1.5764121e-11
amgSolver:  Solving for p, Initial residual = 0.00069834202, Final residual = 1.7263692e-07, No Iterations 100
time step continuity errors : sum local = 6.3112191e-13, global = -6.0387626e-13, cumulative = -1.6367997e-11
amgSolver:  Solving for p, Initial residual = 1.8838857e-05, Final residual = 1.7370451e-07, No Iterations 100
time step continuity errors : sum local = 6.3509676e-13, global = -6.3332807e-13, cumulative = -1.7001325e-11
amgSolver:  Solving for p, Initial residual = 2.2905371e-06, Final residual = 1.6898685e-07, No Iterations 100
time step continuity errors : sum local = 6.1785391e-13, global = -6.1785373e-13, cumulative = -1.7619179e-11
ExecutionTime = 2.95 s  ClockTime = 3 s

forces output:
    forces(pressure, viscous)((0.021633404 -0.00052624941 -2.1224043e-20) (0.013593103 -1.079857e-06 1.134494e-20))
    moment(pressure, viscous)((2.631247e-05 0.0010816702 -8.7185936e-15) (5.3992849e-08 0.00067965517 -6.7006555e-08))

forceCoeffs output:
    Cd = 0.070453016
    Cl = -0.0010546585
    Cm = 0

Time = 0.016

Courant Number mean: 0.010045714 max: 0.10027242 velocity magnitude: 1.8699359
smoothSolver:  Solving for Ux, Initial residual = 0.00075550203, Final residual = 5.7539693e-08, No Iterations 4
smoothSolver:  Solving for Uy, Initial residual = 0.00097702503, Final residual = 6.0802856e-08, No Iterations 4
amgSolver:  Solving for p, Initial residual = 0.0084627263, Final residual = 2.4000569e-07, No Iterations 100
time step continuity errors : sum local = 8.7479599e-13, global = 8.747958e-13, cumulative = -1.6744383e-11
amgSolver:  Solving for p, Initial residual = 0.00067380042, Final residual = 1.6954572e-07, No Iterations 100
time step continuity errors : sum local = 6.1561211e-13, global = -5.7570415e-13, cumulative = -1.7320087e-11
amgSolver:  Solving for p, Initial residual = 1.7884041e-05, Final residual = 1.712681e-07, No Iterations 100
time step continuity errors : sum local = 6.2193549e-13, global = -6.1847833e-13, cumulative = -1.7938566e-11
amgSolver:  Solving for p, Initial residual = 2.1998459e-06, Final residual = 1.6694233e-07, No Iterations 100
time step continuity errors : sum local = 6.0623238e-13, global = -6.0623219e-13, cumulative = -1.8544798e-11
ExecutionTime = 3.05 s  ClockTime = 3 s

forces output:
    forces(pressure, viscous)((0.021401997 -0.00051027796 -2.123265e-20) (0.013381795 -1.3974764e-06 1.1349729e-20))
    moment(pressure, viscous)((2.5513898e-05 0.0010700999 -8.7704781e-15) (6.987382e-08 0.00066908976 -6.5884002e-08))

forceCoeffs output:
    Cd = 0.069567585
    Cl = -0.0010233509
    Cm = 0

Time = 0.0165

Courant Number mean: 0.010043683 max: 0.10030883 velocity magnitude: 1.868334
smoothSolver:  Solving for Ux, Initial residual = 0.00073839697, Final residual = 5.5344145e-08, No Iterations 4
smoothSolver:  Solving for Uy, Initial residual = 0.00095417917, Final residual = 5.8987939e-08, No Iterations 4
amgSolver:  Solving for p, Initial residual = 0.0081972373, Final residual = 2.4133116e-07, No Iterations 100
time step continuity errors : sum local = 8.7372673e-13, global = 8.7372654e-13, cumulative = -1.7671071e-11
amgSolver:  Solving for p, Initial residual = 0.00065074124, Final residual = 1.6673098e-07, No Iterations 100
time step continuity errors : sum local = 6.0142596e-13, global = -5.4710917e-13, cumulative = -1.821818e-11
amgSolver:  Solving for p, Initial residual = 1.7005317e-05, Final residual = 1.6858281e-07, No Iterations 100
time step continuity errors : sum local = 6.0817306e-13, global = -6.0232033e-13, cumulative = -1.8820501e-11
amgSolver:  Solving for p, Initial residual = 2.1153627e-06, Final residual = 1.6445612e-07, No Iterations 100
time step continuity errors : sum local = 5.9329062e-13, global = -5.9329044e-13, cumulative = -1.9413791e-11
ExecutionTime = 3.15 s  ClockTime = 3 s

forces output:
    forces(pressure, viscous)((0.021183007 -0.0004947557 -2.1238466e-20) (0.013180485 -1.6886195e-06 1.1352949e-20))
    moment(pressure, viscous)((2.4737785e-05 0.0010591504 -8.8156394e-15) (8.4430973e-08 0.00065902426 -6.4889674e-08))

forceCoeffs output:
    Cd = 0.068726985
    Cl = -0.00099288864
    Cm = 0

Time = 0.017

Courant Number mean: 0.010041706 max: 0.10034581 velocity magnitude: 1.8666252
smoothSolver:  Solving for Ux, Initial residual = 0.00072242377, Final residual = 5.3273106e-08, No Iterations 4
smoothSolver:  Solving for Uy, Initial residual = 0.00093247565, Final residual = 5.7256615e-08, No Iterations 4
amgSolver:  Solving for p, Initial residual = 0.0079479635, Final residual = 2.4255795e-07, No Iterations 100
time step continuity errors : sum local = 8.7250932e-13, global = 8.7250915e-13, cumulative = -1.8541282e-11
amgSolver:  Solving for p, Initial residual = 0.00062897163, Final residual = 1.6418263e-07, No Iterations 100
time step continuity errors : sum local = 5.8851843e-13, global = -5.1830378e-13, cumulative = -1.9059586e-11
amgSolver:  Solving for p, Initial residual = 1.6195868e-05, Final residual = 1.6567981e-07, No Iterations 100
time step continuity errors : sum local = 5.9394794e-13, global = -5.8495123e-13, cumulative = -1.9644537e-11
amgSolver:  Solving for p, Initial residual = 2.0361574e-06, Final residual = 1.615341e-07, No Iterations 100
time step continuity errors : sum local = 5.7909032e-13, global = -5.7909014e-13, cumulative = -2.0223627e-11
ExecutionTime = 3.26 s  ClockTime = 3 s

forces output:
    forces(pressure, viscous)((0.020975446 -0.00047967231 -2.1241762e-20) (0.012988411 -1.9553183e-06 1.135475e-20))
    moment(pressure, viscous)((2.3983616e-05 0.0010487723 -8.8540286e-15) (9.7765915e-08 0.00064942054 -6.4010262e-08))

forceCoeffs output:
    Cd = 0.067927714
    Cl = -0.00096325526
    Cm = 0

Time = 0.0175

Courant Number mean: 0.01003978 max: 0.10038314 velocity magnitude: 1.8648124
smoothSolver:  Solving for Ux, Initial residual = 0.00070733388, Final residual = 5.1317521e-08, No Iterations 4
smoothSolver:  Solving for Uy, Initial residual = 0.0009120672, Final residual = 5.5604087e-08, No Iterations 4
amgSolver:  Solving for p, Initial residual = 0.0077119896, Final residual = 2.4368058e-07, No Iterations 100
time step continuity errors : sum local = 8.7113244e-13, global = 8.7113227e-13, cumulative = -1.9352495e-11
amgSolver:  Solving for p, Initial residual = 0.00060843077, Final residual = 1.6192137e-07, No Iterations 100
time step continuity errors : sum local = 5.7692075e-13, global = -4.894586e-13, cumulative = -1.9841953e-11
amgSolver:  Solving for p, Initial residual = 1.5449738e-05, Final residual = 1.6261663e-07, No Iterations 100
time step continuity errors : sum local = 5.7945827e-13, global = -5.6648247e-13, cumulative = -2.0408436e-11
amgSolver:  Solving for p, Initial residual = 1.9618546e-06, Final residual = 1.5819838e-07, No Iterations 100
time step continuity errors : sum local = 5.6371846e-13, global = -5.6371827e-13, cumulative = -2.0972154e-11
ExecutionTime = 3.35 s  ClockTime = 3 s

forces output:
    forces(pressure, viscous)((0.020778427 -0.00046501803 -2.124278e-20) (0.012804888 -2.1994222e-06 1.1355267e-20))
    moment(pressure, viscous)((2.3250901e-05 0.0010389214 -8.8860825e-15) (1.0997111e-07 0.00064024442 -6.3233849e-08))

forceCoeffs output:
    Cd = 0.067166632
    Cl = -0.0009344349
    Cm = 0

Time = 0.018

Courant Number mean: 0.0100379 max: 0.10042061 velocity magnitude: 1.8628986
smoothSolver:  Solving for Ux, Initial residual = 0.00069305378, Final residual = 4.9469071e-08, No Iterations 4
smoothSolver:  Solving for Uy, Initial residual = 0.00089265127, Final residual = 5.4025806e-08, No Iterations 4
amgSolver:  Solving for p, Initial residual = 0.007485986, Final residual = 2.4468707e-07, No Iterations 100
time step continuity errors : sum local = 8.6957857e-13, global = 8.6957839e-13, cumulative = -2.0102576e-11
amgSolver:  Solving for p, Initial residual = 0.0005889517, Final residual = 1.6002876e-07, No Iterations 100
time step continuity errors : sum local = 5.6692006e-13, global = -4.6071629e-13, cumulative = -2.0563292e-11
amgSolver:  Solving for p, Initial residual = 1.475981e-05, Final residual = 1.5938604e-07, No Iterations 100
time step continuity errors : sum local = 5.6469644e-13, global = -5.4703858e-13, cumulative = -2.1110331e-11
amgSolver:  Solving for p, Initial residual = 1.8919135e-06, Final residual = 1.5447033e-07, No Iterations 100
time step continuity errors : sum local = 5.4728388e-13, global = -5.4728371e-13, cumulative = -2.1657614e-11
ExecutionTime = 3.47 s  ClockTime = 3 s

forces output:
    forces(pressure, viscous)((0.020591156 -0.00045078349 -2.1241738e-20) (0.012629303 -2.4226198e-06 1.1354619e-20))
    moment(pressure, viscous)((2.2539174e-05 0.0010295578 -8.9121423e-15) (1.2113099e-07 0.00063146517 -6.2550103e-08))

forceCoeffs output:
    Cd = 0.066440919
    Cl = -0.00090641222
    Cm = 0

Time = 0.0185

Courant Number mean: 0.010036067 max: 0.10045807 velocity magnitude: 1.8608871
smoothSolver:  Solving for Ux, Initial residual = 0.00067964318, Final residual = 4.7719905e-08, No Iterations 4
smoothSolver:  Solving for Uy, Initial residual = 0.00087420347, Final residual = 5.2517806e-08, No Iterations 4
amgSolver:  Solving for p, Initial residual = 0.0072710684, Final residual = 2.4555987e-07, No Iterations 100
time step continuity errors : sum local = 8.6781717e-13, global = 8.6781699e-13, cumulative = -2.0789797e-11
amgSolver:  Solving for p, Initial residual = 0.00057035995, Final residual = 1.5844447e-07, No Iterations 100
time step continuity errors : sum local = 5.5828994e-13, global = -4.321933e-13, cumulative = -2.1221991e-11
amgSolver:  Solving for p, Initial residual = 1.4116767e-05, Final residual = 1.5605293e-07, No Iterations 100
time step continuity errors : sum local = 5.4991041e-13, global = -5.2675432e-13, cumulative = -2.1748745e-11
amgSolver:  Solving for p, Initial residual = 1.8258565e-06, Final residual = 1.5037755e-07, No Iterations 100
time step continuity errors : sum local = 5.2991422e-13, global = -5.2991405e-13, cumulative = -2.2278659e-11
ExecutionTime = 3.57 s  ClockTime = 3 s

forces output:
    forces(pressure, viscous)((0.020412916 -0.0004369597 -2.1238831e-20) (0.012461102 -2.6264637e-06 1.1352916e-20))
    moment(pressure, viscous)((2.1847985e-05 0.0010206458 -8.9323754e-15) (1.3132318e-07 0.0006230551 -6.1945922e-08))

forceCoeffs output:
    Cd = 0.065748035
    Cl = -0.00087917232
    Cm = 0

Time = 0.019

Courant Number mean: 0.010034279 max: 0.10049537 velocity magnitude: 1.8587814
smoothSolver:  Solving for Ux, Initial residual = 0.00066712295, Final residual = 4.6063586e-08, No Iterations 4
smoothSolver:  Solving for Uy, Initial residual = 0.0008567857, Final residual = 5.1076197e-08, No Iterations 4
amgSolver:  Solving for p, Initial residual = 0.0070638011, Final residual = 2.4629411e-07, No Iterations 100
time step continuity errors : sum local = 8.6580496e-13, global = 8.6580478e-13, cumulative = -2.1412854e-11
amgSolver:  Solving for p, Initial residual = 0.00055259024, Final residual = 1.5709719e-07, No Iterations 100
time step continuity errors : sum local = 5.5069386e-13, global = -4.03987e-13, cumulative = -2.1816841e-11
amgSolver:  Solving for p, Initial residual = 1.3522887e-05, Final residual = 1.5273855e-07, No Iterations 100
time step continuity errors : sum local = 5.3546066e-13, global = -5.0576972e-13, cumulative = -2.2322611e-11
amgSolver:  Solving for p, Initial residual = 1.7634445e-06, Final residual = 1.4597333e-07, No Iterations 100
time step continuity errors : sum local = 5.1174636e-13, global = -5.1174619e-13, cumulative = -2.2834357e-11
ExecutionTime = 3.66 s  ClockTime = 3 s

forces output:
    forces(pressure, viscous)((0.02024306 -0.0004235379 -2.1234234e-20) (0.012299784 -2.8123729e-06 1.1350255e-20))
    moment(pressure, viscous)((2.1176895e-05 0.001012153 -8.9471734e-15) (1.4061864e-07 0.0006149892 -6.1414619e-08))

forceCoeffs output:
    Cd = 0.065085688
    Cl = -0.00085270054
    Cm = 0

Time = 0.0195

Courant Number mean: 0.010032531 max: 0.10053242 velocity magnitude: 1.856585
smoothSolver:  Solving for Ux, Initial residual = 0.00065529012, Final residual = 4.4493281e-08, No Iterations 4
smoothSolver:  Solving for Uy, Initial residual = 0.00084029961, Final residual = 4.9696735e-08, No Iterations 4
amgSolver:  Solving for p, Initial residual = 0.0068650572, Final residual = 2.4688672e-07, No Iterations 100
time step continuity errors : sum local = 8.634801e-13, global = 8.6347995e-13, cumulative = -2.1970877e-11
amgSolver:  Solving for p, Initial residual = 0.00053563319, Final residual = 1.5599523e-07, No Iterations 100
time step continuity errors : sum local = 5.4411508e-13, global = -3.7617929e-13, cumulative = -2.2347056e-11
amgSolver:  Solving for p, Initial residual = 1.2973156e-05, Final residual = 1.4940838e-07, No Iterations 100
time step continuity errors : sum local = 5.2118395e-13, global = -4.8422543e-13, cumulative = -2.2831282e-11
amgSolver:  Solving for p, Initial residual = 1.704513e-06, Final residual = 1.4130548e-07, No Iterations 100
time step continuity errors : sum local = 4.9292094e-13, global = -4.9292074e-13, cumulative = -2.3324203e-11
ExecutionTime = 3.75 s  ClockTime = 4 s

forces output:
    forces(pressure, viscous)((0.020081006 -0.00041050946 -2.1228106e-20) (0.012144895 -2.981653e-06 1.1346723e-20))
    moment(pressure, viscous)((2.0525473e-05 0.0010040503 -8.9572785e-15) (1.4908265e-07 0.00060724475 -6.0950889e-08))

forceCoeffs output:
    Cd = 0.064451802
    Cl = -0.00082698223
    Cm = 0

Time = 0.02

Courant Number mean: 0.010030825 max: 0.10056911 velocity magnitude: 1.8543015
smoothSolver:  Solving for Ux, Initial residual = 0.00064405623, Final residual = 4.3003116e-08, No Iterations 4
smoothSolver:  Solving for Uy, Initial residual = 0.00082465629, Final residual = 4.8376025e-08, No Iterations 4
amgSolver:  Solving for p, Initial residual = 0.0066752926, Final residual = 2.4732365e-07, No Iterations 100
time step continuity errors : sum local = 8.6076653e-13, global = 8.6076633e-13, cumulative = -2.2463436e-11
amgSolver:  Solving for p, Initial residual = 0.00051945715, Final residual = 1.5516019e-07, No Iterations 100
time step continuity errors : sum local = 5.3860566e-13, global = -3.4884961e-13, cumulative = -2.2812286e-11
amgSolver:  Solving for p, Initial residual = 1.2459419e-05, Final residual = 1.4610582e-07, No Iterations 100
time step continuity errors : sum local = 5.0721754e-13, global = -4.6227005e-13, cumulative = -2.3274556e-11
amgSolver:  Solving for p, Initial residual = 1.6487059e-06, Final residual = 1.3641685e-07, No Iterations 100
time step continuity errors : sum local = 4.7358378e-13, global = -4.7358359e-13, cumulative = -2.374814e-11
ExecutionTime = 3.84 s  ClockTime = 4 s

forces output:
    forces(pressure, viscous)((0.019926223 -0.00039786586 -2.1220589e-20) (0.011996021 -3.1355084e-06 1.1342398e-20))
    moment(pressure, viscous)((1.9893293e-05 0.00099631114 -8.9632857e-15) (1.5677542e-07 0.00059980107 -6.0549564e-08))

forceCoeffs output:
    Cd = 0.063844488
    Cl = -0.00080200274
    Cm = 0

Time = 0.0205

Courant Number mean: 0.010029165 max: 0.10060539 velocity magnitude: 1.8519344
smoothSolver:  Solving for Ux, Initial residual = 0.00063338291, Final residual = 4.1587861e-08, No Iterations 4
smoothSolver:  Solving for Uy, Initial residual = 0.00080967687, Final residual = 4.7110969e-08, No Iterations 4
amgSolver:  Solving for p, Initial residual = 0.0064927241, Final residual = 2.4757429e-07, No Iterations 100
time step continuity errors : sum local = 8.5756725e-13, global = 8.5756707e-13, cumulative = -2.2890573e-11
amgSolver:  Solving for p, Initial residual = 0.00050397564, Final residual = 1.5451508e-07, No Iterations 100
time step continuity errors : sum local = 5.3388921e-13, global = -3.2207007e-13, cumulative = -2.3212643e-11
amgSolver:  Solving for p, Initial residual = 1.1976048e-05, Final residual = 1.4286238e-07, No Iterations 100
time step continuity errors : sum local = 4.9366356e-13, global = -4.4005425e-13, cumulative = -2.3652697e-11
amgSolver:  Solving for p, Initial residual = 1.5959122e-06, Final residual = 1.3134786e-07, No Iterations 100
time step continuity errors : sum local = 4.5387688e-13, global = -4.5387671e-13, cumulative = -2.4106574e-11
ExecutionTime = 3.94 s  ClockTime = 4 s

forces output:
    forces(pressure, viscous)((0.019778228 -0.00038559866 -2.121181e-20) (0.011852786 -3.2750523e-06 1.133735e-20))
    moment(pressure, viscous)((1.9279933e-05 0.00098891138 -8.9657671e-15) (1.6375262e-07 0.00059263928 -6.0205493e-08))

forceCoeffs output:
    Cd = 0.063262026
    Cl = -0.00077774742
    Cm = 0

Time = 0.021

Courant Number mean: 0.01002754 max: 0.10064119 velocity magnitude: 1.8494874
smoothSolver:  Solving for Ux, Initial residual = 0.00062324322, Final residual = 4.0243e-08, No Iterations 4
smoothSolver:  Solving for Uy, Initial residual = 0.00079529893, Final residual = 4.5898468e-08, No Iterations 4
amgSolver:  Solving for p, Initial residual = 0.0063163612, Final residual = 2.476038e-07, No Iterations 100
time step continuity errors : sum local = 8.5376667e-13, global = 8.5376648e-13, cumulative = -2.3252807e-11
amgSolver:  Solving for p, Initial residual = 0.00048913499, Final residual = 1.54005e-07, No Iterations 100
time step continuity errors : sum local = 5.2976458e-13, global = -2.9592512e-13, cumulative = -2.3548732e-11
amgSolver:  Solving for p, Initial residual = 1.1523237e-05, Final residual = 1.3974014e-07, No Iterations 100
time step continuity errors : sum local = 4.8073013e-13, global = -4.1773339e-13, cumulative = -2.3966466e-11
amgSolver:  Solving for p, Initial residual = 1.545741e-06, Final residual = 1.2614363e-07, No Iterations 100
time step continuity errors : sum local = 4.3395755e-13, global = -4.3395737e-13, cumulative = -2.4400423e-11
ExecutionTime = 4.04 s  ClockTime = 4 s

forces output:
    forces(pressure, viscous)((0.019636578 -0.00037369942 -2.1201889e-20) (0.011714842 -3.4013147e-06 1.1331647e-20))
    moment(pressure, viscous)((1.8684971e-05 0.00098182892 -8.9645012e-15) (1.7006574e-07 0.00058574211 -5.9913659e-08))

forceCoeffs output:
    Cd = 0.062702841
    Cl = -0.00075420147
    Cm = 0

Time = 0.0215

Courant Number mean: 0.01002595 max: 0.10067648 velocity magnitude: 1.8469642
smoothSolver:  Solving for Ux, Initial residual = 0.00061355233, Final residual = 3.8963987e-08, No Iterations 4
smoothSolver:  Solving for Uy, Initial residual = 0.00078152358, Final residual = 4.4735679e-08, No Iterations 4
amgSolver:  Solving for p, Initial residual = 0.0061462959, Final residual = 2.4736386e-07, No Iterations 100
time step continuity errors : sum local = 8.4922072e-13, global = 8.4922052e-13, cumulative = -2.3551202e-11
amgSolver:  Solving for p, Initial residual = 0.00047489029, Final residual = 1.5356143e-07, No Iterations 100
time step continuity errors : sum local = 5.2599495e-13, global = -2.7048129e-13, cumulative = -2.3821684e-11
amgSolver:  Solving for p, Initial residual = 1.1098478e-05, Final residual = 1.3671361e-07, No Iterations 100
time step continuity errors : sum local = 4.6831841e-13, global = -3.9545289e-13, cumulative = -2.4217137e-11
amgSolver:  Solving for p, Initial residual = 1.4980947e-06, Final residual = 1.208485e-07, No Iterations 100
time step continuity errors : sum local = 4.1397332e-13, global = -4.1397314e-13, cumulative = -2.463111e-11
ExecutionTime = 4.13 s  ClockTime = 4 s

forces output:
    forces(pressure, viscous)((0.019500872 -0.00036215974 -2.1190933e-20) (0.011581875 -3.5152493e-06 1.132535e-20))
    moment(pressure, viscous)((1.8107987e-05 0.00097504362 -8.9596346e-15) (1.7576246e-07 0.00057909374 -5.9669296e-08))

forceCoeffs output:
    Cd = 0.062165494
    Cl = -0.00073134998
    Cm = 0

Time = 0.022

Courant Number mean: 0.010024394 max: 0.10071122 velocity magnitude: 1.8443685
smoothSolver:  Solving for Ux, Initial residual = 0.00060433675, Final residual = 3.7746775e-08, No Iterations 4
smoothSolver:  Solving for Uy, Initial residual = 0.00076830533, Final residual = 4.3620082e-08, No Iterations 4
amgSolver:  Solving for p, Initial residual = 0.005981998, Final residual = 2.4680007e-07, No Iterations 100
time step continuity errors : sum local = 8.4375501e-13, global = 8.4375484e-13, cumulative = -2.3787355e-11
amgSolver:  Solving for p, Initial residual = 0.00046118962, Final residual = 1.5313964e-07, No Iterations 100
time step continuity errors : sum local = 5.2242541e-13, global = -2.4582326e-13, cumulative = -2.4033178e-11
amgSolver:  Solving for p, Initial residual = 1.0698407e-05, Final residual = 1.3382581e-07, No Iterations 100
time step continuity errors : sum local = 4.5656826e-13, global = -3.7337154e-13, cumulative = -2.440655e-11
amgSolver:  Solving for p, Initial residual = 1.4528841e-06, Final residual = 1.155098e-07, No Iterations 100
time step continuity errors : sum local = 3.9408159e-13, global = -3.9408141e-13, cumulative = -2.4800631e-11
ExecutionTime = 4.22 s  ClockTime = 4 s

forces output:
    forces(pressure, viscous)((0.01937074 -0.00035097119 -2.1179037e-20) (0.011453593 -3.6177415e-06 1.1318512e-20))
    moment(pressure, viscous)((1.7548559e-05 0.000968537 -8.951138e-15) (1.8088707e-07 0.00057267965 -5.9466793e-08))

forceCoeffs output:
    Cd = 0.061648666
    Cl = -0.00070917786
    Cm = 0

Time = 0.0225

Courant Number mean: 0.010022875 max: 0.10074541 velocity magnitude: 1.841704
smoothSolver:  Solving for Ux, Initial residual = 0.00059557332, Final residual = 3.6586999e-08, No Iterations 4
smoothSolver:  Solving for Uy, Initial residual = 0.00075561747, Final residual = 4.2549445e-08, No Iterations 4
amgSolver:  Solving for p, Initial residual = 0.0058248661, Final residual = 2.4585288e-07, No Iterations 100
time step continuity errors : sum local = 8.3715751e-13, global = 8.3715733e-13, cumulative = -2.3963474e-11
amgSolver:  Solving for p, Initial residual = 0.00044806151, Final residual = 1.5276441e-07, No Iterations 100
time step continuity errors : sum local = 5.1910699e-13, global = -2.2204996e-13, cumulative = -2.4185524e-11
amgSolver:  Solving for p, Initial residual = 1.0317391e-05, Final residual = 1.311345e-07, No Iterations 100
time step continuity errors : sum local = 4.4563654e-13, global = -3.5165215e-13, cumulative = -2.4537176e-11
amgSolver:  Solving for p, Initial residual = 1.4100595e-06, Final residual = 1.1018954e-07, No Iterations 100
time step continuity errors : sum local = 3.7446015e-13, global = -3.7443965e-13, cumulative = -2.4911616e-11
ExecutionTime = 4.33 s  ClockTime = 4 s

forces output:
    forces(pressure, viscous)((0.019245841 -0.00034012701 -2.116629e-20) (0.01132973 -3.7096189e-06 1.1311184e-20))
    moment(pressure, viscous)((1.700635e-05 0.00096229206 -8.9385718e-15) (1.8548094e-07 0.00056648648 -5.9301469e-08))

forceCoeffs output:
    Cd = 0.061151142
    Cl = -0.00068767325
    Cm = 0

Time = 0.023

Courant Number mean: 0.010021389 max: 0.10077902 velocity magnitude: 1.8394572
smoothSolver:  Solving for Ux, Initial residual = 0.00058720444, Final residual = 3.5480412e-08, No Iterations 4
smoothSolver:  Solving for Uy, Initial residual = 0.00074347309, Final residual = 4.1520981e-08, No Iterations 4
amgSolver:  Solving for p, Initial residual = 0.0056738287, Final residual = 2.4445181e-07, No Iterations 100
time step continuity errors : sum local = 8.2918093e-13, global = 8.2918074e-13, cumulative = -2.4082435e-11
amgSolver:  Solving for p, Initial residual = 0.00043551164, Final residual = 1.5244164e-07, No Iterations 100
time step continuity errors : sum local = 5.160592e-13, global = -1.993024e-13, cumulative = -2.4281737e-11
amgSolver:  Solving for p, Initial residual = 9.9567216e-06, Final residual = 1.285732e-07, No Iterations 100
time step continuity errors : sum local = 4.3528597e-13, global = -3.3048615e-13, cumulative = -2.4612223e-11
amgSolver:  Solving for p, Initial residual = 1.3694523e-06, Final residual = 1.0498335e-07, No Iterations 100
time step continuity errors : sum local = 3.5542336e-13, global = -3.5522836e-13, cumulative = -2.4967452e-11
ExecutionTime = 4.43 s  ClockTime = 4 s

forces output:
    forces(pressure, viscous)((0.019125856 -0.00032963633 -2.1152778e-20) (0.011210039 -3.7917179e-06 1.1303412e-20))
    moment(pressure, viscous)((1.6481817e-05 0.00095629278 -8.9230754e-15) (1.8958589e-07 0.00056050193 -5.9169588e-08))

forceCoeffs output:
    Cd = 0.060671788
    Cl = -0.0006668561
    Cm = 0

Time = 0.0235

Courant Number mean: 0.010019931 max: 0.10081206 velocity magnitude: 1.8387044
smoothSolver:  Solving for Ux, Initial residual = 0.00057925571, Final residual = 3.4424214e-08, No Iterations 4
smoothSolver:  Solving for Uy, Initial residual = 0.0007317867, Final residual = 4.0532298e-08, No Iterations 4
amgSolver:  Solving for p, Initial residual = 0.0055295705, Final residual = 2.4249304e-07, No Iterations 100
time step continuity errors : sum local = 8.1949966e-13, global = 8.1949947e-13, cumulative = -2.4147952e-11
amgSolver:  Solving for p, Initial residual = 0.00042355282, Final residual = 1.5213114e-07, No Iterations 100
time step continuity errors : sum local = 5.131562e-13, global = -1.7765086e-13, cumulative = -2.4325603e-11
amgSolver:  Solving for p, Initial residual = 9.6147732e-06, Final residual = 1.2613976e-07, No Iterations 100
time step continuity errors : sum local = 4.2551003e-13, global = -3.0999149e-13, cumulative = -2.4635595e-11
amgSolver:  Solving for p, Initial residual = 1.3306702e-06, Final residual = 9.9953217e-08, No Iterations 100
time step continuity errors : sum local = 3.3717532e-13, global = -3.3655874e-13, cumulative = -2.4972153e-11
ExecutionTime = 4.53 s  ClockTime = 4 s

forces output:
    forces(pressure, viscous)((0.019010513 -0.00031946978 -2.1138565e-20) (0.011094293 -3.8647111e-06 1.1295233e-20))
    moment(pressure, viscous)((1.5973489e-05 0.00095052563 -8.9047994e-15) (1.9323556e-07 0.00055471464 -5.9068095e-08))

forceCoeffs output:
    Cd = 0.060209611
    Cl = -0.00064666899
    Cm = 0

Time = 0.024

Courant Number mean: 0.010018501 max: 0.10084454 velocity magnitude: 1.8379064
smoothSolver:  Solving for Ux, Initial residual = 0.00057166247, Final residual = 3.341548e-08, No Iterations 4
smoothSolver:  Solving for Uy, Initial residual = 0.00072060579, Final residual = 3.958139e-08, No Iterations 4
amgSolver:  Solving for p, Initial residual = 0.0053912812, Final residual = 2.3943223e-07, No Iterations 100
time step continuity errors : sum local = 8.0627975e-13, global = 8.0627957e-13, cumulative = -2.4165874e-11
amgSolver:  Solving for p, Initial residual = 0.00041207258, Final residual = 1.5178346e-07, No Iterations 100
time step continuity errors : sum local = 5.1019998e-13, global = -1.5523256e-13, cumulative = -2.4321106e-11
amgSolver:  Solving for p, Initial residual = 9.2945661e-06, Final residual = 1.2373641e-07, No Iterations 100
time step continuity errors : sum local = 4.1594894e-13, global = -2.8858093e-13, cumulative = -2.4609687e-11
amgSolver:  Solving for p, Initial residual = 1.2935097e-06, Final residual = 9.9676695e-08, No Iterations 79
time step continuity errors : sum local = 3.3507138e-13, global = -3.151144e-13, cumulative = -2.4924802e-11
ExecutionTime = 4.62 s  ClockTime = 4 s

forces output:
    forces(pressure, viscous)((0.018899542 -0.00030961906 -2.1123728e-20) (0.010982282 -3.9292367e-06 1.1286689e-20))
    moment(pressure, viscous)((1.5480953e-05 0.0009449771 -8.8840022e-15) (1.9646183e-07 0.00054911409 -5.8994329e-08))

forceCoeffs output:
    Cd = 0.059763648
    Cl = -0.0006270966
    Cm = 0

Time = 0.0245

Courant Number mean: 0.010017098 max: 0.10087645 velocity magnitude: 1.8370637
smoothSolver:  Solving for Ux, Initial residual = 0.00056438091, Final residual = 3.2451607e-08, No Iterations 4
smoothSolver:  Solving for Uy, Initial residual = 0.00070985435, Final residual = 3.8666319e-08, No Iterations 4
amgSolver:  Solving for p, Initial residual = 0.0052570888, Final residual = 2.3581132e-07, No Iterations 100
time step continuity errors : sum local = 7.9137978e-13, global = 7.9137959e-13, cumulative = -2.4133422e-11
amgSolver:  Solving for p, Initial residual = 0.00040099607, Final residual = 1.5153625e-07, No Iterations 100
time step continuity errors : sum local = 5.0767863e-13, global = -1.3649628e-13, cumulative = -2.4269918e-11
amgSolver:  Solving for p, Initial residual = 8.9903011e-06, Final residual = 1.2170941e-07, No Iterations 100
time step continuity errors : sum local = 4.0777457e-13, global = -2.7018377e-13, cumulative = -2.4540102e-11
amgSolver:  Solving for p, Initial residual = 1.2581141e-06, Final residual = 9.9926153e-08, No Iterations 72
time step continuity errors : sum local = 3.3479288e-13, global = -2.9664464e-13, cumulative = -2.4836747e-11
ExecutionTime = 4.71 s  ClockTime = 5 s

forces output:
    forces(pressure, viscous)((0.018792718 -0.000300076 -2.1108302e-20) (0.010873811 -3.9858946e-06 1.1277801e-20))
    moment(pressure, viscous)((1.50038e-05 0.00093963592 -8.8605266e-15) (1.9929473e-07 0.00054369053 -5.8945881e-08))

forceCoeffs output:
    Cd = 0.059333058
    Cl = -0.00060812379
    Cm = 0

Time = 0.025

Courant Number mean: 0.010015731 max: 0.10090783 velocity magnitude: 1.836177
smoothSolver:  Solving for Ux, Initial residual = 0.00055745224, Final residual = 3.1529885e-08, No Iterations 4
smoothSolver:  Solving for Uy, Initial residual = 0.00069954743, Final residual = 3.7785299e-08, No Iterations 4
amgSolver:  Solving for p, Initial residual = 0.0051297354, Final residual = 2.3140617e-07, No Iterations 100
time step continuity errors : sum local = 7.7408091e-13, global = 7.7408053e-13, cumulative = -2.4062666e-11
amgSolver:  Solving for p, Initial residual = 0.00039032693, Final residual = 1.5133522e-07, No Iterations 100
time step continuity errors : sum local = 5.0541741e-13, global = -1.1964616e-13, cumulative = -2.4182312e-11
amgSolver:  Solving for p, Initial residual = 8.7005431e-06, Final residual = 1.1982275e-07, No Iterations 100
time step continuity errors : sum local = 4.0019573e-13, global = -2.5328607e-13, cumulative = -2.4435598e-11
amgSolver:  Solving for p, Initial residual = 1.2242718e-06, Final residual = 9.9763241e-08, No Iterations 68
time step continuity errors : sum local = 3.3319981e-13, global = -2.7981666e-13, cumulative = -2.4715415e-11
ExecutionTime = 4.79 s  ClockTime = 5 s

forces output:
    forces(pressure, viscous)((0.018689806 -0.00029083232 -2.1092359e-20) (0.010768698 -4.0352457e-06 1.1268607e-20))
[...]
amgSolver:  Solving for p, Initial residual = 3.7630779e-06, Final residual = 1.7620528e-07, No Iterations 100
time step continuity errors : sum local = 5.4519071e-13, global = 5.451905e-13, cumulative = 3.5009244e-09
amgSolver:  Solving for p, Initial residual = 3.4538751e-07, Final residual = 1.4967824e-07, No Iterations 100
time step continuity errors : sum local = 4.6311657e-13, global = 4.6311641e-13, cumulative = 3.5013875e-09
amgSolver:  Solving for p, Initial residual = 1.8795758e-07, Final residual = 1.2917923e-07, No Iterations 100
time step continuity errors : sum local = 3.9969201e-13, global = 3.9969183e-13, cumulative = 3.5017872e-09
ExecutionTime = 189.7 s  ClockTime = 190 s

forces output:
    forces(pressure, viscous)((0.017773435 -3.2527963e-05 -1.2198027e-20) (0.003356919 -1.6076941e-06 6.4494817e-21))
    moment(pressure, viscous)((1.6263981e-06 0.00088867173 -7.1028727e-15) (8.0384707e-08 0.00016784595 -1.1632013e-07))

forceCoeffs output:
    Cd = 0.042260707
    Cl = -6.8271314e-05
    Cm = 0

Time = 0.9945

Courant Number mean: 0.0099343966 max: 0.092040422 velocity magnitude: 1.4663069
smoothSolver:  Solving for Ux, Initial residual = 8.9970821e-05, Final residual = 9.2004385e-09, No Iterations 2
smoothSolver:  Solving for Uy, Initial residual = 0.00013962262, Final residual = 2.4747962e-08, No Iterations 2
amgSolver:  Solving for p, Initial residual = 0.00016090423, Final residual = 2.2566963e-07, No Iterations 100
time step continuity errors : sum local = 6.9825676e-13, global = 6.9825658e-13, cumulative = 3.5024854e-09
amgSolver:  Solving for p, Initial residual = 3.7598819e-06, Final residual = 1.7613708e-07, No Iterations 100
time step continuity errors : sum local = 5.4501146e-13, global = 5.4501128e-13, cumulative = 3.5030305e-09
amgSolver:  Solving for p, Initial residual = 3.4517851e-07, Final residual = 1.496162e-07, No Iterations 100
time step continuity errors : sum local = 4.6295167e-13, global = 4.6295148e-13, cumulative = 3.5034934e-09
amgSolver:  Solving for p, Initial residual = 1.878667e-07, Final residual = 1.2912481e-07, No Iterations 100
time step continuity errors : sum local = 3.9954692e-13, global = 3.9954675e-13, cumulative = 3.503893e-09
ExecutionTime = 189.81 s  ClockTime = 190 s

forces output:
    forces(pressure, viscous)((0.017772545 -3.2776426e-05 -1.2196658e-20) (0.0033567681 -1.6290805e-06 6.4486184e-21))
    moment(pressure, viscous)((1.6388213e-06 0.00088862726 -7.1016149e-15) (8.1454026e-08 0.0001678384 -1.1645209e-07))

forceCoeffs output:
    Cd = 0.042258626
    Cl = -6.8811013e-05
    Cm = 0

Time = 0.995

Courant Number mean: 0.0099343159 max: 0.092039591 velocity magnitude: 1.4662784
smoothSolver:  Solving for Ux, Initial residual = 8.9931636e-05, Final residual = 9.1941019e-09, No Iterations 2
smoothSolver:  Solving for Uy, Initial residual = 0.00013954255, Final residual = 2.4726044e-08, No Iterations 2
amgSolver:  Solving for p, Initial residual = 0.00016078594, Final residual = 2.2562398e-07, No Iterations 100
time step continuity errors : sum local = 6.981562e-13, global = 6.9815603e-13, cumulative = 3.5045911e-09
amgSolver:  Solving for p, Initial residual = 3.7565419e-06, Final residual = 1.7609979e-07, No Iterations 100
time step continuity errors : sum local = 5.4492783e-13, global = 5.4492765e-13, cumulative = 3.505136e-09
amgSolver:  Solving for p, Initial residual = 3.4498791e-07, Final residual = 1.4958158e-07, No Iterations 100
time step continuity errors : sum local = 4.6287149e-13, global = 4.6287131e-13, cumulative = 3.5055989e-09
amgSolver:  Solving for p, Initial residual = 1.8780045e-07, Final residual = 1.2909439e-07, No Iterations 100
time step continuity errors : sum local = 3.9947608e-13, global = 3.9947589e-13, cumulative = 3.5059984e-09
ExecutionTime = 189.91 s  ClockTime = 190 s

forces output:
    forces(pressure, viscous)((0.017771656 -3.3025063e-05 -1.2195289e-20) (0.0033566172 -1.6504715e-06 6.4477559e-21))
    moment(pressure, viscous)((1.6512532e-06 0.00088858279 -7.1004155e-15) (8.2523575e-08 0.00016783086 -1.1658194e-07))

forceCoeffs output:
    Cd = 0.042256546
    Cl = -6.935107e-05
    Cm = 0

Time = 0.9955

Courant Number mean: 0.0099342351 max: 0.09203876 velocity magnitude: 1.4662499
smoothSolver:  Solving for Ux, Initial residual = 8.9892461e-05, Final residual = 9.1877713e-09, No Iterations 2
smoothSolver:  Solving for Uy, Initial residual = 0.00013946245, Final residual = 2.4704143e-08, No Iterations 2
amgSolver:  Solving for p, Initial residual = 0.00016066743, Final residual = 2.2556598e-07, No Iterations 100
time step continuity errors : sum local = 6.9801758e-13, global = 6.980174e-13, cumulative = 3.5066964e-09
amgSolver:  Solving for p, Initial residual = 3.7530636e-06, Final residual = 1.7605152e-07, No Iterations 100
time step continuity errors : sum local = 5.4481043e-13, global = 5.4481026e-13, cumulative = 3.5072412e-09
amgSolver:  Solving for p, Initial residual = 3.4477968e-07, Final residual = 1.4953714e-07, No Iterations 100
time step continuity errors : sum local = 4.6276113e-13, global = 4.6276095e-13, cumulative = 3.507704e-09
amgSolver:  Solving for p, Initial residual = 1.8772262e-07, Final residual = 1.2905534e-07, No Iterations 100
time step continuity errors : sum local = 3.9937867e-13, global = 3.993785e-13, cumulative = 3.5081034e-09
ExecutionTime = 190.01 s  ClockTime = 190 s

forces output:
    forces(pressure, viscous)((0.017770766 -3.3273874e-05 -1.2193922e-20) (0.0033564665 -1.6718677e-06 6.4468941e-21))
    moment(pressure, viscous)((1.6636937e-06 0.00088853831 -7.099189e-15) (8.3593386e-08 0.00016782333 -1.1670969e-07))

forceCoeffs output:
    Cd = 0.042254465
    Cl = -6.9891483e-05
    Cm = 0

Time = 0.996

Courant Number mean: 0.0099341543 max: 0.092037928 velocity magnitude: 1.4662214
smoothSolver:  Solving for Ux, Initial residual = 8.9853369e-05, Final residual = 9.1814435e-09, No Iterations 2
smoothSolver:  Solving for Uy, Initial residual = 0.00013938235, Final residual = 2.4682226e-08, No Iterations 2
amgSolver:  Solving for p, Initial residual = 0.0001605488, Final residual = 2.2549109e-07, No Iterations 100
time step continuity errors : sum local = 6.9782701e-13, global = 6.9782684e-13, cumulative = 3.5088012e-09
amgSolver:  Solving for p, Initial residual = 3.7498743e-06, Final residual = 1.7598829e-07, No Iterations 100
time step continuity errors : sum local = 5.4464708e-13, global = 5.4464691e-13, cumulative = 3.5093458e-09
amgSolver:  Solving for p, Initial residual = 3.4457417e-07, Final residual = 1.4947954e-07, No Iterations 100
time step continuity errors : sum local = 4.6261032e-13, global = 4.6261013e-13, cumulative = 3.5098084e-09
amgSolver:  Solving for p, Initial residual = 1.8763564e-07, Final residual = 1.290048e-07, No Iterations 100
time step continuity errors : sum local = 3.9924596e-13, global = 3.992458e-13, cumulative = 3.5102077e-09
ExecutionTime = 190.1 s  ClockTime = 190 s

forces output:
    forces(pressure, viscous)((0.017769877 -3.3522859e-05 -1.2192555e-20) (0.0033563159 -1.6932698e-06 6.4460329e-21))
    moment(pressure, viscous)((1.6761429e-06 0.00088849384 -7.0978913e-15) (8.466349e-08 0.0001678158 -1.1683536e-07))

forceCoeffs output:
    Cd = 0.042252385
    Cl = -7.0432258e-05
    Cm = 0

Time = 0.9965

Courant Number mean: 0.0099340747 max: 0.092037097 velocity magnitude: 1.4661929
smoothSolver:  Solving for Ux, Initial residual = 8.9814295e-05, Final residual = 9.1751276e-09, No Iterations 2
smoothSolver:  Solving for Uy, Initial residual = 0.00013930038, Final residual = 2.4660337e-08, No Iterations 2
amgSolver:  Solving for p, Initial residual = 0.00016166026, Final residual = 2.2629351e-07, No Iterations 100
time step continuity errors : sum local = 7.003511e-13, global = 7.0035093e-13, cumulative = 3.510908e-09
amgSolver:  Solving for p, Initial residual = 3.746833e-06, Final residual = 1.7671217e-07, No Iterations 100
time step continuity errors : sum local = 5.469188e-13, global = 5.4691864e-13, cumulative = 3.511455e-09
amgSolver:  Solving for p, Initial residual = 3.4506045e-07, Final residual = 1.5012458e-07, No Iterations 100
time step continuity errors : sum local = 4.6463332e-13, global = 4.6463317e-13, cumulative = 3.5119196e-09
amgSolver:  Solving for p, Initial residual = 1.8823632e-07, Final residual = 1.2957129e-07, No Iterations 100
time step continuity errors : sum local = 4.0102227e-13, global = 4.0102207e-13, cumulative = 3.5123206e-09
ExecutionTime = 190.2 s  ClockTime = 190 s

forces output:
    forces(pressure, viscous)((0.01776899 -3.3774476e-05 -1.2191201e-20) (0.0033561654 -1.7146881e-06 6.4451781e-21))
    moment(pressure, viscous)((1.6887238e-06 0.00088844952 -7.0965403e-15) (8.5734404e-08 0.00016780827 -1.1695896e-07))

forceCoeffs output:
    Cd = 0.042250312
    Cl = -7.0978327e-05
    Cm = 0

Time = 0.997

Courant Number mean: 0.0099339953 max: 0.092036266 velocity magnitude: 1.4661644
smoothSolver:  Solving for Ux, Initial residual = 8.9775222e-05, Final residual = 9.1687998e-09, No Iterations 2
smoothSolver:  Solving for Uy, Initial residual = 0.00013921751, Final residual = 2.4638375e-08, No Iterations 2
amgSolver:  Solving for p, Initial residual = 0.00016179487, Final residual = 2.2676735e-07, No Iterations 100
time step continuity errors : sum local = 7.018578e-13, global = 7.0185764e-13, cumulative = 3.5130225e-09
amgSolver:  Solving for p, Initial residual = 3.7439149e-06, Final residual = 1.7713689e-07, No Iterations 100
time step continuity errors : sum local = 5.4826463e-13, global = 5.4826446e-13, cumulative = 3.5135707e-09
amgSolver:  Solving for p, Initial residual = 3.4528673e-07, Final residual = 1.505015e-07, No Iterations 100
time step continuity errors : sum local = 4.6582651e-13, global = 4.6582633e-13, cumulative = 3.5140366e-09
amgSolver:  Solving for p, Initial residual = 1.8857478e-07, Final residual = 1.2990178e-07, No Iterations 100
time step continuity errors : sum local = 4.0206809e-13, global = 4.0206791e-13, cumulative = 3.5144386e-09
ExecutionTime = 190.3 s  ClockTime = 190 s

forces output:
    forces(pressure, viscous)((0.017768105 -3.4026758e-05 -1.2189852e-20) (0.003356015 -1.7361217e-06 6.4443268e-21))
    moment(pressure, viscous)((1.7013379e-06 0.00088840523 -7.0952172e-15) (8.6806087e-08 0.00016780075 -1.1708052e-07))

forceCoeffs output:
    Cd = 0.042248239
    Cl = -7.152576e-05
    Cm = 0

Time = 0.9975

Courant Number mean: 0.0099339165 max: 0.092035435 velocity magnitude: 1.4661359
smoothSolver:  Solving for Ux, Initial residual = 8.973615e-05, Final residual = 9.1623406e-09, No Iterations 2
smoothSolver:  Solving for Uy, Initial residual = 0.00013913452, Final residual = 2.4616445e-08, No Iterations 2
amgSolver:  Solving for p, Initial residual = 0.00016185582, Final residual = 2.266916e-07, No Iterations 100
time step continuity errors : sum local = 7.0166314e-13, global = 7.0166296e-13, cumulative = 3.5151403e-09
amgSolver:  Solving for p, Initial residual = 3.7427125e-06, Final residual = 1.7707223e-07, No Iterations 100
time step continuity errors : sum local = 5.4809529e-13, global = 5.4809513e-13, cumulative = 3.5156884e-09
amgSolver:  Solving for p, Initial residual = 3.4521901e-07, Final residual = 1.504442e-07, No Iterations 100
time step continuity errors : sum local = 4.6567534e-13, global = 4.6567518e-13, cumulative = 3.5161541e-09
amgSolver:  Solving for p, Initial residual = 1.8848798e-07, Final residual = 1.2985201e-07, No Iterations 100
time step continuity errors : sum local = 4.0193663e-13, global = 4.0193644e-13, cumulative = 3.516556e-09
ExecutionTime = 190.4 s  ClockTime = 191 s

forces output:
    forces(pressure, viscous)((0.01776722 -3.427906e-05 -1.2188506e-20) (0.0033558647 -1.7575682e-06 6.4434765e-21))
    moment(pressure, viscous)((1.713953e-06 0.00088836099 -7.0938738e-15) (8.7878408e-08 0.00016779323 -1.1720005e-07))

forceCoeffs output:
    Cd = 0.042246169
    Cl = -7.2073255e-05
    Cm = 0

Time = 0.998

Courant Number mean: 0.0099338376 max: 0.092034604 velocity magnitude: 1.4661074
smoothSolver:  Solving for Ux, Initial residual = 8.9697119e-05, Final residual = 9.1559242e-09, No Iterations 2
smoothSolver:  Solving for Uy, Initial residual = 0.00013905153, Final residual = 2.4594586e-08, No Iterations 2
amgSolver:  Solving for p, Initial residual = 0.00016172948, Final residual = 2.2646699e-07, No Iterations 100
time step continuity errors : sum local = 7.0100735e-13, global = 7.0100714e-13, cumulative = 3.517257e-09
amgSolver:  Solving for p, Initial residual = 3.7394616e-06, Final residual = 1.7687576e-07, No Iterations 100
time step continuity errors : sum local = 5.4751792e-13, global = 5.4751776e-13, cumulative = 3.5178045e-09
amgSolver:  Solving for p, Initial residual = 3.4490357e-07, Final residual = 1.5026785e-07, No Iterations 100
time step continuity errors : sum local = 4.6515558e-13, global = 4.6515541e-13, cumulative = 3.5182697e-09
amgSolver:  Solving for p, Initial residual = 1.8828543e-07, Final residual = 1.2969731e-07, No Iterations 100
time step continuity errors : sum local = 4.0148032e-13, global = 4.0148014e-13, cumulative = 3.5186712e-09
ExecutionTime = 190.5 s  ClockTime = 191 s

forces output:
    forces(pressure, viscous)((0.017766335 -3.4531508e-05 -1.2187159e-20) (0.0033557145 -1.7790265e-06 6.4426259e-21))
    moment(pressure, viscous)((1.7265754e-06 0.00088831675 -7.0925948e-15) (8.8951326e-08 0.00016778572 -1.1731757e-07))

forceCoeffs output:
    Cd = 0.042244099
    Cl = -7.2621068e-05
    Cm = 0

Time = 0.9985

Courant Number mean: 0.0099337586 max: 0.092033773 velocity magnitude: 1.466079
smoothSolver:  Solving for Ux, Initial residual = 8.9658107e-05, Final residual = 9.1495257e-09, No Iterations 2
smoothSolver:  Solving for Uy, Initial residual = 0.00013896857, Final residual = 2.4572751e-08, No Iterations 2
amgSolver:  Solving for p, Initial residual = 0.00016160316, Final residual = 2.2629622e-07, No Iterations 100
time step continuity errors : sum local = 7.0051795e-13, global = 7.005178e-13, cumulative = 3.5193717e-09
amgSolver:  Solving for p, Initial residual = 3.7362451e-06, Final residual = 1.7672703e-07, No Iterations 100
time step continuity errors : sum local = 5.470882e-13, global = 5.4708799e-13, cumulative = 3.5199188e-09
amgSolver:  Solving for p, Initial residual = 3.4463083e-07, Final residual = 1.5013396e-07, No Iterations 100
time step continuity errors : sum local = 4.6476716e-13, global = 4.6476699e-13, cumulative = 3.5203835e-09
amgSolver:  Solving for p, Initial residual = 1.8812447e-07, Final residual = 1.2957985e-07, No Iterations 100
time step continuity errors : sum local = 4.0113917e-13, global = 4.0113897e-13, cumulative = 3.5207847e-09
ExecutionTime = 190.59 s  ClockTime = 191 s

forces output:
    forces(pressure, viscous)((0.01776545 -3.4784099e-05 -1.2185811e-20) (0.0033555644 -1.8004964e-06 6.4417754e-21))
    moment(pressure, viscous)((1.7392049e-06 0.00088827251 -7.0912201e-15) (9.0024821e-08 0.00016777822 -1.174331e-07))

forceCoeffs output:
    Cd = 0.042242029
    Cl = -7.316919e-05
    Cm = 0

Time = 0.999

Courant Number mean: 0.0099336796 max: 0.092032943 velocity magnitude: 1.4660505
smoothSolver:  Solving for Ux, Initial residual = 8.9619217e-05, Final residual = 9.1431551e-09, No Iterations 2
smoothSolver:  Solving for Uy, Initial residual = 0.00013888562, Final residual = 2.4550935e-08, No Iterations 2
amgSolver:  Solving for p, Initial residual = 0.00016147687, Final residual = 2.2618255e-07, No Iterations 100
time step continuity errors : sum local = 7.0020529e-13, global = 7.002051e-13, cumulative = 3.5214849e-09
amgSolver:  Solving for p, Initial residual = 3.7330629e-06, Final residual = 1.7662892e-07, No Iterations 100
time step continuity errors : sum local = 5.4681496e-13, global = 5.4681476e-13, cumulative = 3.5220317e-09
amgSolver:  Solving for p, Initial residual = 3.4440539e-07, Final residual = 1.500451e-07, No Iterations 100
time step continuity errors : sum local = 4.6451802e-13, global = 4.645178e-13, cumulative = 3.5224962e-09
amgSolver:  Solving for p, Initial residual = 1.8800759e-07, Final residual = 1.2950183e-07, No Iterations 100
time step continuity errors : sum local = 4.0092003e-13, global = 4.0091986e-13, cumulative = 3.5228971e-09
ExecutionTime = 190.69 s  ClockTime = 191 s

forces output:
    forces(pressure, viscous)((0.017764565 -3.5036829e-05 -1.2184464e-20) (0.0033554144 -1.8219776e-06 6.4409251e-21))
    moment(pressure, viscous)((1.7518415e-06 0.00088822826 -7.0898521e-15) (9.109888e-08 0.00016777072 -1.1754665e-07))

forceCoeffs output:
    Cd = 0.042239959
    Cl = -7.3717614e-05
    Cm = 0

Time = 0.9995

Courant Number mean: 0.0099336005 max: 0.092032112 velocity magnitude: 1.466022
smoothSolver:  Solving for Ux, Initial residual = 8.9580339e-05, Final residual = 9.1367935e-09, No Iterations 2
smoothSolver:  Solving for Uy, Initial residual = 0.00013880285, Final residual = 2.4529141e-08, No Iterations 2
amgSolver:  Solving for p, Initial residual = 0.00016135163, Final residual = 2.2608244e-07, No Iterations 100
time step continuity errors : sum local = 6.9993445e-13, global = 6.9993427e-13, cumulative = 3.5235971e-09
amgSolver:  Solving for p, Initial residual = 3.7298934e-06, Final residual = 1.7654279e-07, No Iterations 100
time step continuity errors : sum local = 5.4657887e-13, global = 5.4657868e-13, cumulative = 3.5241436e-09
amgSolver:  Solving for p, Initial residual = 3.4419065e-07, Final residual = 1.4996693e-07, No Iterations 100
time step continuity errors : sum local = 4.6430193e-13, global = 4.6430175e-13, cumulative = 3.5246079e-09
amgSolver:  Solving for p, Initial residual = 1.8790115e-07, Final residual = 1.2943318e-07, No Iterations 100
time step continuity errors : sum local = 4.0072992e-13, global = 4.0072974e-13, cumulative = 3.5250087e-09
ExecutionTime = 190.78 s  ClockTime = 191 s

forces output:
    forces(pressure, viscous)((0.01776368 -3.5289696e-05 -1.2183118e-20) (0.0033552645 -1.8434699e-06 6.4400752e-21))
    moment(pressure, viscous)((1.7644848e-06 0.00088818402 -7.0884579e-15) (9.2173497e-08 0.00016776322 -1.1765824e-07))

forceCoeffs output:
    Cd = 0.04223789
    Cl = -7.4266331e-05
    Cm = 0

Time = 1

Courant Number mean: 0.0099335214 max: 0.092031281 velocity magnitude: 1.4659936
smoothSolver:  Solving for Ux, Initial residual = 8.9541501e-05, Final residual = 9.1304406e-09, No Iterations 2
smoothSolver:  Solving for Uy, Initial residual = 0.00013872024, Final residual = 2.4507367e-08, No Iterations 2
amgSolver:  Solving for p, Initial residual = 0.00016122691, Final residual = 2.2597615e-07, No Iterations 100
time step continuity errors : sum local = 6.9964451e-13, global = 6.9964432e-13, cumulative = 3.5257083e-09
amgSolver:  Solving for p, Initial residual = 3.7267804e-06, Final residual = 1.7645122e-07, No Iterations 100
time step continuity errors : sum local = 5.4632584e-13, global = 5.4632566e-13, cumulative = 3.5262546e-09
amgSolver:  Solving for p, Initial residual = 3.4397099e-07, Final residual = 1.4988392e-07, No Iterations 100
time step continuity errors : sum local = 4.6407086e-13, global = 4.6407067e-13, cumulative = 3.5267187e-09
amgSolver:  Solving for p, Initial residual = 1.8779005e-07, Final residual = 1.293603e-07, No Iterations 100
time step continuity errors : sum local = 4.0052658e-13, global = 4.0052644e-13, cumulative = 3.5271192e-09
ExecutionTime = 190.89 s  ClockTime = 191 s

forces output:
    forces(pressure, viscous)((0.017762795 -3.5542694e-05 -1.2181771e-20) (0.0033551147 -1.8649733e-06 6.4392256e-21))
    moment(pressure, viscous)((1.7771347e-06 0.00088813977 -7.0870434e-15) (9.3248667e-08 0.00016775573 -1.1776789e-07))

forceCoeffs output:
    Cd = 0.04223582
    Cl = -7.4815336e-05
    Cm = 0

pressureTools pressureTools1 output:
    writing field static(p)_coeff

End

