/*---------------------------------------------------------------------------*\
| =========                 |                                                 |
| \\      /  F ield         | foam-extend: Open Source CFD                    |
|  \\    /   O peration     | Version:     4.1                                |
|   \\  /    A nd           | Web:         http://www.foam-extend.org         |
|    \\/     M anipulation  | For copyright notice see file Copyright         |
\*---------------------------------------------------------------------------*/
Build  : 4.1-76ec96ae2dcb
Exec   : icoOversetFoam
Date   : Apr 03 2020
Time   : 05:13:45
Host   : "aoba"
PID    : 18741
CtrlDict : "/home/mimi/foam/mimi-4.1/run/cylinder-blockmesh-tut-merge/system/controlDict"
Case   : /home/mimi/foam/mimi-4.1/run/cylinder-blockmesh-tut-merge
nProcs : 1
sigFpe : Enabling floating point exception trapping (FOAM_SIGFPE).
allowSystemOperations : Disallowing user-supplied system call operations

// * * * * * * * * * * * * * * * * * * * * * * * * * * * * * * * * * * * * * //
Create time

Create mesh for time = 3


PISO: Operating solver in PISO mode

Creating oversetMesh
Selecting overset fringe type overlap
Selecting overset fringe type faceCells
Found 1 active overset interpolation schemes.

Selecting overset interpolation type injection
Updating iteration for overset region: volume
Region internal: 150 triangles in hole cutting
Region volume: 0 triangles in hole cutting
Overlap fringe iteration: 1 for region: volume
Cumulative suitable pairs: 32, total number of pairs: 32 (100%)
Converted 0 acceptors to holes.
Finished assembling overlap fringe.
Updating iteration for overset region: internal
Number of acceptor cells: 107
Number of donor cells: 107
Number of hole cells: 80
Checking donor-acceptor assembly
Reading transportProperties

Reading field p

Reading field U

Reading/calculating face flux field phi

Reading field rAU if present


Starting time loop

Time = 3.0005

Courant Number mean: 0.0093071235 max: 0.062454255 velocity magnitude: 1.3142119
In manipulateMatrix: true bou: 123 int: 0
smoothSolver:  Solving for Ux, Initial residual = 3.0688548e-05, Final residual = 1.4392258e-08, No Iterations 2
smoothSolver:  Solving for Uy, Initial residual = 3.6830746e-05, Final residual = 2.2694677e-08, No Iterations 2
In manipulateMatrix: true bou: 123 int: 0
amgSolver:  Solving for p, Initial residual = 5.854445e-05, Final residual = 2.3147156e-07, No Iterations 100
Overset time step continuity errors : max local = 4.6998632e-09, sum local = 1.2977831e-12, global = 2.6062283e-13, cumulative = 2.6062283e-13
In manipulateMatrix: true bou: 123 int: 0
amgSolver:  Solving for p, Initial residual = 6.7059069e-07, Final residual = 1.1630447e-07, No Iterations 100
Overset time step continuity errors : max local = 2.2470202e-09, sum local = 6.5208239e-13, global = 7.4445834e-14, cumulative = 3.3506867e-13
In manipulateMatrix: true bou: 123 int: 0
amgSolver:  Solving for p, Initial residual = 1.1350852e-07, Final residual = 9.9900312e-08, No Iterations 20
Overset time step continuity errors : max local = 1.8775378e-09, sum local = 5.6010932e-13, global = 4.5765923e-14, cumulative = 3.8083459e-13
In manipulateMatrix: true bou: 123 int: 0
amgSolver:  Solving for p, Initial residual = 9.9421253e-08, Final residual = 9.9421253e-08, No Iterations 0
Overset time step continuity errors : max local = 1.8741304e-09, sum local = 5.5742338e-13, global = 4.5045869e-14, cumulative = 4.2588046e-13
ExecutionTime = 0.52 s  ClockTime = 1 s

forces output:
    forces(pressure, viscous)((0.0019062111 -3.6279095e-06 3.2847496e-22) (0.00053262264 -4.1316807e-07 8.695835e-23))
    moment(pressure, viscous)((3.6279095e-08 1.9062111e-05 1.0700118e-13) (4.1316807e-09 5.3262264e-06 5.6790307e-11))

Time = 3.001

Courant Number mean: 0.0093071393 max: 0.062454018 velocity magnitude: 1.3142094
In manipulateMatrix: true bou: 123 int: 0
smoothSolver:  Solving for Ux, Initial residual = 3.0680097e-05, Final residual = 1.4388099e-08, No Iterations 2
smoothSolver:  Solving for Uy, Initial residual = 3.6827859e-05, Final residual = 2.2693005e-08, No Iterations 2
In manipulateMatrix: true bou: 123 int: 0
amgSolver:  Solving for p, Initial residual = 3.5983511e-05, Final residual = 1.9750621e-07, No Iterations 100
Overset time step continuity errors : max local = 4.1080832e-09, sum local = 1.1073568e-12, global = 2.0518532e-13, cumulative = 6.3106578e-13
In manipulateMatrix: true bou: 123 int: 0
amgSolver:  Solving for p, Initial residual = 5.1800438e-07, Final residual = 9.9918192e-08, No Iterations 97
Overset time step continuity errors : max local = 1.8858465e-09, sum local = 5.6021216e-13, global = 5.2089344e-14, cumulative = 6.8315512e-13
In manipulateMatrix: true bou: 123 int: 0
amgSolver:  Solving for p, Initial residual = 9.7617713e-08, Final residual = 9.7617713e-08, No Iterations 0
Overset time step continuity errors : max local = 1.8740502e-09, sum local = 5.4731394e-13, global = 4.8327175e-14, cumulative = 7.314823e-13
In manipulateMatrix: true bou: 123 int: 0
amgSolver:  Solving for p, Initial residual = 9.7560522e-08, Final residual = 9.7560522e-08, No Iterations 0
Overset time step continuity errors : max local = 1.8739902e-09, sum local = 5.4699329e-13, global = 4.8229541e-14, cumulative = 7.7971184e-13
ExecutionTime = 0.75 s  ClockTime = 1 s

forces output:
    forces(pressure, viscous)((0.0019061931 -3.6268741e-06 3.2846484e-22) (0.00053261905 -4.1322514e-07 8.6958063e-23))
    moment(pressure, viscous)((3.6268741e-08 1.9061931e-05 1.0692828e-13) (4.1322514e-09 5.3261905e-06 5.4056971e-11))

Time = 3.0015

Courant Number mean: 0.0093071551 max: 0.062453781 velocity magnitude: 1.3142069
In manipulateMatrix: true bou: 123 int: 0
smoothSolver:  Solving for Ux, Initial residual = 3.0671036e-05, Final residual = 1.4383655e-08, No Iterations 2
smoothSolver:  Solving for Uy, Initial residual = 3.6823833e-05, Final residual = 2.269064e-08, No Iterations 2
In manipulateMatrix: true bou: 123 int: 0
amgSolver:  Solving for p, Initial residual = 2.448605e-05, Final residual = 2.1371188e-07, No Iterations 100
Overset time step continuity errors : max local = 4.4057048e-09, sum local = 1.1982226e-12, global = 2.3825527e-13, cumulative = 1.0179671e-12
In manipulateMatrix: true bou: 123 int: 0
amgSolver:  Solving for p, Initial residual = 3.4918113e-07, Final residual = 1.067111e-07, No Iterations 100
Overset time step continuity errors : max local = 2.0624486e-09, sum local = 5.9830093e-13, global = 6.6712816e-14, cumulative = 1.0846799e-12
In manipulateMatrix: true bou: 123 int: 0
amgSolver:  Solving for p, Initial residual = 1.0408644e-07, Final residual = 9.997199e-08, No Iterations 6
Overset time step continuity errors : max local = 1.9276593e-09, sum local = 5.6051639e-13, global = 5.53679e-14, cumulative = 1.1400478e-12
In manipulateMatrix: true bou: 123 int: 0
amgSolver:  Solving for p, Initial residual = 9.9775927e-08, Final residual = 9.9775927e-08, No Iterations 0
Overset time step continuity errors : max local = 1.9263834e-09, sum local = 5.594171e-13, global = 5.508195e-14, cumulative = 1.1951298e-12
ExecutionTime = 0.99 s  ClockTime = 1 s

forces output:
    forces(pressure, viscous)((0.0019061775 -3.626229e-06 3.2845547e-22) (0.00053261547 -4.1328164e-07 8.6957754e-23))
    moment(pressure, viscous)((3.626229e-08 1.9061775e-05 1.0694365e-13) (4.1328164e-09 5.3261547e-06 5.1315217e-11))

Time = 3.002

Courant Number mean: 0.0093071709 max: 0.062453544 velocity magnitude: 1.3142043
In manipulateMatrix: true bou: 123 int: 0
smoothSolver:  Solving for Ux, Initial residual = 3.0662206e-05, Final residual = 1.4379318e-08, No Iterations 2
smoothSolver:  Solving for Uy, Initial residual = 3.6820311e-05, Final residual = 2.2688585e-08, No Iterations 2
In manipulateMatrix: true bou: 123 int: 0
amgSolver:  Solving for p, Initial residual = 2.1060607e-05, Final residual = 2.1601314e-07, No Iterations 100
Overset time step continuity errors : max local = 4.4507853e-09, sum local = 1.211131e-12, global = 2.4402838e-13, cumulative = 1.4391581e-12
In manipulateMatrix: true bou: 123 int: 0
amgSolver:  Solving for p, Initial residual = 3.3539388e-07, Final residual = 1.0797356e-07, No Iterations 100
Overset time step continuity errors : max local = 2.0851226e-09, sum local = 6.0538217e-13, global = 7.0372326e-14, cumulative = 1.5095305e-12
In manipulateMatrix: true bou: 123 int: 0
amgSolver:  Solving for p, Initial residual = 1.0530958e-07, Final residual = 9.9904882e-08, No Iterations 8
Overset time step continuity errors : max local = 1.9171962e-09, sum local = 5.6014287e-13, global = 5.6588138e-14, cumulative = 1.5661186e-12
In manipulateMatrix: true bou: 123 int: 0
amgSolver:  Solving for p, Initial residual = 9.9669229e-08, Final residual = 9.9669229e-08, No Iterations 0
Overset time step continuity errors : max local = 1.9156193e-09, sum local = 5.588216e-13, global = 5.6241041e-14, cumulative = 1.6223597e-12
ExecutionTime = 1.23 s  ClockTime = 2 s

forces output:
    forces(pressure, viscous)((0.001906162 -3.6258226e-06 3.2844583e-22) (0.00053261189 -4.1333776e-07 8.6957447e-23))
    moment(pressure, viscous)((3.6258226e-08 1.906162e-05 1.0695702e-13) (4.1333776e-09 5.3261189e-06 4.8565065e-11))

Time = 3.0025

Courant Number mean: 0.0093071867 max: 0.062453307 velocity magnitude: 1.3142018
In manipulateMatrix: true bou: 123 int: 0
smoothSolver:  Solving for Ux, Initial residual = 3.0653397e-05, Final residual = 1.4374987e-08, No Iterations 2
smoothSolver:  Solving for Uy, Initial residual = 3.6816799e-05, Final residual = 2.2686529e-08, No Iterations 2
In manipulateMatrix: true bou: 123 int: 0
amgSolver:  Solving for p, Initial residual = 1.9557653e-05, Final residual = 2.1493836e-07, No Iterations 100
Overset time step continuity errors : max local = 4.4311228e-09, sum local = 1.2051109e-12, global = 2.4205151e-13, cumulative = 1.8644112e-12
In manipulateMatrix: true bou: 123 int: 0
amgSolver:  Solving for p, Initial residual = 3.3186529e-07, Final residual = 1.0740367e-07, No Iterations 100
Overset time step continuity errors : max local = 2.0693966e-09, sum local = 6.0218993e-13, global = 6.9352835e-14, cumulative = 1.933764e-12
In manipulateMatrix: true bou: 123 int: 0
amgSolver:  Solving for p, Initial residual = 1.0475803e-07, Final residual = 9.9996526e-08, No Iterations 7
Overset time step continuity errors : max local = 1.918248e-09, sum local = 5.6065947e-13, global = 5.6781147e-14, cumulative = 1.9905451e-12
In manipulateMatrix: true bou: 123 int: 0
amgSolver:  Solving for p, Initial residual = 9.9780412e-08, Final residual = 9.9780412e-08, No Iterations 0
Overset time step continuity errors : max local = 1.916822e-09, sum local = 5.5944775e-13, global = 5.6464394e-14, cumulative = 2.0470095e-12
ExecutionTime = 1.46 s  ClockTime = 2 s

forces output:
    forces(pressure, viscous)((0.0019061464 -3.6254682e-06 3.2843612e-22) (0.00053260831 -4.1339354e-07 8.695714e-23))
    moment(pressure, viscous)((3.6254682e-08 1.9061464e-05 1.069696e-13) (4.1339354e-09 5.3260831e-06 4.5806522e-11))

Time = 3.003

Courant Number mean: 0.0093072025 max: 0.06245307 velocity magnitude: 1.3141993
In manipulateMatrix: true bou: 123 int: 0
smoothSolver:  Solving for Ux, Initial residual = 3.0644596e-05, Final residual = 1.4370661e-08, No Iterations 2
smoothSolver:  Solving for Uy, Initial residual = 3.6813296e-05, Final residual = 2.2684485e-08, No Iterations 2
In manipulateMatrix: true bou: 123 int: 0
amgSolver:  Solving for p, Initial residual = 1.8768132e-05, Final residual = 2.1501938e-07, No Iterations 100
Overset time step continuity errors : max local = 4.4296094e-09, sum local = 1.2055711e-12, global = 2.4071944e-13, cumulative = 2.287729e-12
In manipulateMatrix: true bou: 123 int: 0
amgSolver:  Solving for p, Initial residual = 3.3125578e-07, Final residual = 1.0744519e-07, No Iterations 100
Overset time step continuity errors : max local = 2.0683127e-09, sum local = 6.0242565e-13, global = 6.8054626e-14, cumulative = 2.3557836e-12
In manipulateMatrix: true bou: 123 int: 0
amgSolver:  Solving for p, Initial residual = 1.0479892e-07, Final residual = 9.9419412e-08, No Iterations 8
Overset time step continuity errors : max local = 1.9015709e-09, sum local = 5.5742648e-13, global = 5.4351017e-14, cumulative = 2.4101346e-12
In manipulateMatrix: true bou: 123 int: 0
amgSolver:  Solving for p, Initial residual = 9.9185583e-08, Final residual = 9.9185583e-08, No Iterations 0
Overset time step continuity errors : max local = 1.9000042e-09, sum local = 5.5611544e-13, global = 5.400598e-14, cumulative = 2.4641406e-12
ExecutionTime = 1.77 s  ClockTime = 2 s

forces output:
    forces(pressure, viscous)((0.0019061307 -3.625108e-06 3.284264e-22) (0.00053260473 -4.13449e-07 8.6956834e-23))
    moment(pressure, viscous)((3.625108e-08 1.9061307e-05 1.0698231e-13) (4.13449e-09 5.3260473e-06 4.303959e-11))

Time = 3.0035

Courant Number mean: 0.0093072183 max: 0.062452833 velocity magnitude: 1.3141968
In manipulateMatrix: true bou: 123 int: 0
smoothSolver:  Solving for Ux, Initial residual = 3.0635802e-05, Final residual = 1.436634e-08, No Iterations 2
smoothSolver:  Solving for Uy, Initial residual = 3.6809806e-05, Final residual = 2.2682442e-08, No Iterations 2
In manipulateMatrix: true bou: 123 int: 0
amgSolver:  Solving for p, Initial residual = 1.8300369e-05, Final residual = 2.1458174e-07, No Iterations 100
Overset time step continuity errors : max local = 4.4167706e-09, sum local = 1.2031233e-12, global = 2.3758442e-13, cumulative = 2.701725e-12
In manipulateMatrix: true bou: 123 int: 0
amgSolver:  Solving for p, Initial residual = 3.3066618e-07, Final residual = 1.0722311e-07, No Iterations 100
Overset time step continuity errors : max local = 2.060056e-09, sum local = 6.0118349e-13, global = 6.5561532e-14, cumulative = 2.7672866e-12
In manipulateMatrix: true bou: 123 int: 0
amgSolver:  Solving for p, Initial residual = 1.0458415e-07, Final residual = 9.9834891e-08, No Iterations 7
Overset time step continuity errors : max local = 1.9091732e-09, sum local = 5.5975876e-13, global = 5.3042678e-14, cumulative = 2.8203292e-12
In manipulateMatrix: true bou: 123 int: 0
amgSolver:  Solving for p, Initial residual = 9.9620005e-08, Final residual = 9.9620005e-08, No Iterations 0
Overset time step continuity errors : max local = 1.9077512e-09, sum local = 5.5855394e-13, global = 5.2727297e-14, cumulative = 2.8730565e-12
ExecutionTime = 2.02 s  ClockTime = 2 s

forces output:
    forces(pressure, viscous)((0.001906115 -3.6247378e-06 3.2841668e-22) (0.00053260115 -4.1350414e-07 8.6956527e-23))
    moment(pressure, viscous)((3.6247378e-08 1.906115e-05 1.0699518e-13) (4.1350414e-09 5.3260115e-06 4.0264274e-11))

Time = 3.004

Courant Number mean: 0.0093072341 max: 0.062452596 velocity magnitude: 1.3141942
In manipulateMatrix: true bou: 123 int: 0
smoothSolver:  Solving for Ux, Initial residual = 3.0627017e-05, Final residual = 1.4362022e-08, No Iterations 2
smoothSolver:  Solving for Uy, Initial residual = 3.6806325e-05, Final residual = 2.2680396e-08, No Iterations 2
In manipulateMatrix: true bou: 123 int: 0
amgSolver:  Solving for p, Initial residual = 1.7995061e-05, Final residual = 2.1508407e-07, No Iterations 100
Overset time step continuity errors : max local = 4.4206813e-09, sum local = 1.2059458e-12, global = 2.3590322e-13, cumulative = 3.1089597e-12
In manipulateMatrix: true bou: 123 int: 0
amgSolver:  Solving for p, Initial residual = 3.3100213e-07, Final residual = 1.0748953e-07, No Iterations 100
Overset time step continuity errors : max local = 2.0607402e-09, sum local = 6.0268026e-13, global = 6.363943e-14, cumulative = 3.1725992e-12
In manipulateMatrix: true bou: 123 int: 0
amgSolver:  Solving for p, Initial residual = 1.0484299e-07, Final residual = 9.9468821e-08, No Iterations 8
Overset time step continuity errors : max local = 1.8940469e-09, sum local = 5.5770905e-13, global = 4.9974225e-14, cumulative = 3.2225734e-12
In manipulateMatrix: true bou: 123 int: 0
amgSolver:  Solving for p, Initial residual = 9.9235929e-08, Final residual = 9.9235929e-08, No Iterations 0
Overset time step continuity errors : max local = 1.8924792e-09, sum local = 5.5640323e-13, global = 4.9630144e-14, cumulative = 3.2722035e-12
ExecutionTime = 2.26 s  ClockTime = 3 s

forces output:
    forces(pressure, viscous)((0.0019060994 -3.6243659e-06 3.2840696e-22) (0.00053259758 -4.1355895e-07 8.6956221e-23))
    moment(pressure, viscous)((3.6243659e-08 1.9060994e-05 1.0700804e-13) (4.1355895e-09 5.3259758e-06 3.7480583e-11))

Time = 3.0045

Courant Number mean: 0.0093072499 max: 0.062452359 velocity magnitude: 1.3141917
In manipulateMatrix: true bou: 123 int: 0
smoothSolver:  Solving for Ux, Initial residual = 3.0618239e-05, Final residual = 1.4357707e-08, No Iterations 2
smoothSolver:  Solving for Uy, Initial residual = 3.6802848e-05, Final residual = 2.267835e-08, No Iterations 2
In manipulateMatrix: true bou: 123 int: 0
amgSolver:  Solving for p, Initial residual = 1.7781115e-05, Final residual = 2.1468523e-07, No Iterations 100
Overset time step continuity errors : max local = 4.4086322e-09, sum local = 1.2037155e-12, global = 2.3286338e-13, cumulative = 3.5050669e-12
In manipulateMatrix: true bou: 123 int: 0
amgSolver:  Solving for p, Initial residual = 3.3060873e-07, Final residual = 1.0728818e-07, No Iterations 100
Overset time step continuity errors : max local = 2.0520397e-09, sum local = 6.0155431e-13, global = 6.120329e-14, cumulative = 3.5662702e-12
In manipulateMatrix: true bou: 123 int: 0
amgSolver:  Solving for p, Initial residual = 1.0464794e-07, Final residual = 9.9903727e-08, No Iterations 7
Overset time step continuity errors : max local = 1.9012415e-09, sum local = 5.601503e-13, global = 4.8716666e-14, cumulative = 3.6149869e-12
In manipulateMatrix: true bou: 123 int: 0
amgSolver:  Solving for p, Initial residual = 9.9689669e-08, Final residual = 9.9689669e-08, No Iterations 0
Overset time step continuity errors : max local = 1.8998232e-09, sum local = 5.589501e-13, global = 4.8402121e-14, cumulative = 3.663389e-12
ExecutionTime = 2.5 s  ClockTime = 3 s

forces output:
    forces(pressure, viscous)((0.0019060837 -3.6239905e-06 3.2839724e-22) (0.000532594 -4.1361344e-07 8.6955914e-23))
    moment(pressure, viscous)((3.6239905e-08 1.9060837e-05 1.0702086e-13) (4.1361344e-09 5.32594e-06 3.4688526e-11))

Time = 3.005

Courant Number mean: 0.0093072656 max: 0.062452122 velocity magnitude: 1.3141891
In manipulateMatrix: true bou: 123 int: 0
smoothSolver:  Solving for Ux, Initial residual = 3.0609465e-05, Final residual = 1.4353395e-08, No Iterations 2
smoothSolver:  Solving for Uy, Initial residual = 3.6799368e-05, Final residual = 2.2676303e-08, No Iterations 2
In manipulateMatrix: true bou: 123 int: 0
amgSolver:  Solving for p, Initial residual = 1.7623477e-05, Final residual = 2.1511858e-07, No Iterations 100
Overset time step continuity errors : max local = 4.4131091e-09, sum local = 1.2061513e-12, global = 2.3193047e-13, cumulative = 3.8953195e-12
In manipulateMatrix: true bou: 123 int: 0
amgSolver:  Solving for p, Initial residual = 3.3093744e-07, Final residual = 1.0751701e-07, No Iterations 100
Overset time step continuity errors : max local = 2.0534874e-09, sum local = 6.0284038e-13, global = 6.000812e-14, cumulative = 3.9553276e-12
In manipulateMatrix: true bou: 123 int: 0
amgSolver:  Solving for p, Initial residual = 1.0487003e-07, Final residual = 9.9502272e-08, No Iterations 8
Overset time step continuity errors : max local = 1.8869181e-09, sum local = 5.5790215e-13, global = 4.6375473e-14, cumulative = 4.0017031e-12
In manipulateMatrix: true bou: 123 int: 0
amgSolver:  Solving for p, Initial residual = 9.9270261e-08, Final residual = 9.9270261e-08, No Iterations 0
Overset time step continuity errors : max local = 1.8853561e-09, sum local = 5.5660131e-13, global = 4.6032268e-14, cumulative = 4.0477353e-12
ExecutionTime = 2.75 s  ClockTime = 3 s

forces output:
    forces(pressure, viscous)((0.0019060681 -3.6236127e-06 3.2838752e-22) (0.00053259043 -4.1366762e-07 8.6955608e-23))
    moment(pressure, viscous)((3.6236127e-08 1.9060681e-05 1.0703363e-13) (4.1366762e-09 5.3259043e-06 3.1888114e-11))

Time = 3.0055

Courant Number mean: 0.0093072814 max: 0.062451886 velocity magnitude: 1.3141866
In manipulateMatrix: true bou: 123 int: 0
smoothSolver:  Solving for Ux, Initial residual = 3.0600699e-05, Final residual = 1.4349085e-08, No Iterations 2
smoothSolver:  Solving for Uy, Initial residual = 3.6795898e-05, Final residual = 2.2674257e-08, No Iterations 2
In manipulateMatrix: true bou: 123 int: 0
amgSolver:  Solving for p, Initial residual = 1.7503303e-05, Final residual = 2.146714e-07, No Iterations 100
Overset time step continuity errors : max local = 4.4028997e-09, sum local = 1.2036499e-12, global = 2.3011364e-13, cumulative = 4.277849e-12
In manipulateMatrix: true bou: 123 int: 0
amgSolver:  Solving for p, Initial residual = 3.3051369e-07, Final residual = 1.0728793e-07, No Iterations 100
Overset time step continuity errors : max local = 2.0468167e-09, sum local = 6.0155889e-13, global = 5.8711078e-14, cumulative = 4.3365601e-12
In manipulateMatrix: true bou: 123 int: 0
amgSolver:  Solving for p, Initial residual = 1.0464761e-07, Final residual = 9.9909345e-08, No Iterations 7
Overset time step continuity errors : max local = 1.8961161e-09, sum local = 5.6018739e-13, global = 4.6246517e-14, cumulative = 4.3828066e-12
In manipulateMatrix: true bou: 123 int: 0
amgSolver:  Solving for p, Initial residual = 9.9695977e-08, Final residual = 9.9695977e-08, No Iterations 0
Overset time step continuity errors : max local = 1.8946964e-09, sum local = 5.5899104e-13, global = 4.5932527e-14, cumulative = 4.4287391e-12
ExecutionTime = 2.99 s  ClockTime = 3 s

forces output:
    forces(pressure, viscous)((0.0019060525 -3.6232293e-06 3.2837781e-22) (0.00053258686 -4.1372147e-07 8.6955302e-23))
    moment(pressure, viscous)((3.6232293e-08 1.9060525e-05 1.0704637e-13) (4.1372147e-09 5.3258686e-06 2.9079358e-11))

Time = 3.006

Courant Number mean: 0.0093072972 max: 0.062451649 velocity magnitude: 1.3141841
In manipulateMatrix: true bou: 123 int: 0
smoothSolver:  Solving for Ux, Initial residual = 3.0591935e-05, Final residual = 1.4344777e-08, No Iterations 2
smoothSolver:  Solving for Uy, Initial residual = 3.6792424e-05, Final residual = 2.2672209e-08, No Iterations 2
In manipulateMatrix: true bou: 123 int: 0
amgSolver:  Solving for p, Initial residual = 1.7408652e-05, Final residual = 2.1507926e-07, No Iterations 100
Overset time step continuity errors : max local = 4.4096535e-09, sum local = 1.2059428e-12, global = 2.304475e-13, cumulative = 4.6591866e-12
In manipulateMatrix: true bou: 123 int: 0
amgSolver:  Solving for p, Initial residual = 3.30818e-07, Final residual = 1.0750072e-07, No Iterations 100
Overset time step continuity errors : max local = 2.0504943e-09, sum local = 6.02755e-13, global = 5.8676415e-14, cumulative = 4.717863e-12
In manipulateMatrix: true bou: 123 int: 0
amgSolver:  Solving for p, Initial residual = 1.0485395e-07, Final residual = 9.9490843e-08, No Iterations 8
Overset time step continuity errors : max local = 1.8840007e-09, sum local = 5.5784365e-13, global = 4.5058159e-14, cumulative = 4.7629212e-12
In manipulateMatrix: true bou: 123 int: 0
amgSolver:  Solving for p, Initial residual = 9.9259259e-08, Final residual = 9.9259259e-08, No Iterations 0
Overset time step continuity errors : max local = 1.8824371e-09, sum local = 5.5654514e-13, global = 4.4715283e-14, cumulative = 4.8076365e-12
ExecutionTime = 3.24 s  ClockTime = 4 s

forces output:
    forces(pressure, viscous)((0.0019060369 -3.6228426e-06 3.283681e-22) (0.00053258329 -4.13775e-07 8.6954995e-23))
    moment(pressure, viscous)((3.6228426e-08 1.9060369e-05 1.0705907e-13) (4.13775e-09 5.3258329e-06 2.6262268e-11))

Time = 3.0065

Courant Number mean: 0.0093073129 max: 0.062451413 velocity magnitude: 1.3141815
In manipulateMatrix: true bou: 123 int: 0
smoothSolver:  Solving for Ux, Initial residual = 3.0583175e-05, Final residual = 1.4340469e-08, No Iterations 2
smoothSolver:  Solving for Uy, Initial residual = 3.6788946e-05, Final residual = 2.2670167e-08, No Iterations 2
In manipulateMatrix: true bou: 123 int: 0
amgSolver:  Solving for p, Initial residual = 1.7332406e-05, Final residual = 2.1461566e-07, No Iterations 100
Overset time step continuity errors : max local = 4.4012296e-09, sum local = 1.2033494e-12, global = 2.2959715e-13, cumulative = 5.0372336e-12
In manipulateMatrix: true bou: 123 int: 0
amgSolver:  Solving for p, Initial residual = 3.3037471e-07, Final residual = 1.0726078e-07, No Iterations 100
Overset time step continuity errors : max local = 2.0455099e-09, sum local = 6.0141271e-13, global = 5.8262588e-14, cumulative = 5.0954962e-12
In manipulateMatrix: true bou: 123 int: 0
amgSolver:  Solving for p, Initial residual = 1.0462098e-07, Final residual = 9.9885226e-08, No Iterations 7
Overset time step continuity errors : max local = 1.8948515e-09, sum local = 5.6005772e-13, global = 4.5804121e-14, cumulative = 5.1413003e-12
In manipulateMatrix: true bou: 123 int: 0
amgSolver:  Solving for p, Initial residual = 9.9672055e-08, Final residual = 9.9672055e-08, No Iterations 0
Overset time step continuity errors : max local = 1.8934319e-09, sum local = 5.5886246e-13, global = 4.5490255e-14, cumulative = 5.1867906e-12
ExecutionTime = 3.48 s  ClockTime = 4 s

forces output:
    forces(pressure, viscous)((0.0019060212 -3.6224499e-06 3.283584e-22) (0.00053257972 -4.1382821e-07 8.6954689e-23))
    moment(pressure, viscous)((3.6224499e-08 1.9060212e-05 1.0707175e-13) (4.1382821e-09 5.3257972e-06 2.3436856e-11))

Time = 3.007

Courant Number mean: 0.0093073287 max: 0.062451176 velocity magnitude: 1.3141789
In manipulateMatrix: true bou: 123 int: 0
smoothSolver:  Solving for Ux, Initial residual = 3.0574418e-05, Final residual = 1.4336163e-08, No Iterations 2
smoothSolver:  Solving for Uy, Initial residual = 3.6785459e-05, Final residual = 2.2668125e-08, No Iterations 2
In manipulateMatrix: true bou: 123 int: 0
amgSolver:  Solving for p, Initial residual = 1.7270194e-05, Final residual = 2.1501298e-07, No Iterations 100
Overset time step continuity errors : max local = 4.4088677e-09, sum local = 1.2055832e-12, global = 2.3042662e-13, cumulative = 5.4172172e-12
In manipulateMatrix: true bou: 123 int: 0
amgSolver:  Solving for p, Initial residual = 3.3066398e-07, Final residual = 1.0746677e-07, No Iterations 100
Overset time step continuity errors : max local = 2.0500287e-09, sum local = 6.0257073e-13, global = 5.8682501e-14, cumulative = 5.4758997e-12
In manipulateMatrix: true bou: 123 int: 0
amgSolver:  Solving for p, Initial residual = 1.0482088e-07, Final residual = 9.9459464e-08, No Iterations 8
Overset time step continuity errors : max local = 1.8835721e-09, sum local = 5.5767332e-13, global = 4.5066978e-14, cumulative = 5.5209667e-12
In manipulateMatrix: true bou: 123 int: 0
amgSolver:  Solving for p, Initial residual = 9.9227965e-08, Final residual = 9.9227965e-08, No Iterations 0
Overset time step continuity errors : max local = 1.8820104e-09, sum local = 5.5637527e-13, global = 4.4724179e-14, cumulative = 5.5656908e-12
ExecutionTime = 3.71 s  ClockTime = 4 s

forces output:
    forces(pressure, viscous)((0.0019060056 -3.6220538e-06 3.2834872e-22) (0.00053257615 -4.138811e-07 8.6954383e-23))
    moment(pressure, viscous)((3.6220538e-08 1.9060056e-05 1.0708438e-13) (4.138811e-09 5.3257615e-06 2.0603134e-11))

Time = 3.0075

Courant Number mean: 0.0093073445 max: 0.06245094 velocity magnitude: 1.3141764
In manipulateMatrix: true bou: 123 int: 0
smoothSolver:  Solving for Ux, Initial residual = 3.0565679e-05, Final residual = 1.4331859e-08, No Iterations 2
smoothSolver:  Solving for Uy, Initial residual = 3.6781991e-05, Final residual = 2.2666081e-08, No Iterations 2
In manipulateMatrix: true bou: 123 int: 0
amgSolver:  Solving for p, Initial residual = 1.7218296e-05, Final residual = 2.1454822e-07, No Iterations 100
Overset time step continuity errors : max local = 4.4004764e-09, sum local = 1.2029835e-12, global = 2.2960086e-13, cumulative = 5.7952917e-12
In manipulateMatrix: true bou: 123 int: 0
amgSolver:  Solving for p, Initial residual = 3.3022056e-07, Final residual = 1.0722616e-07, No Iterations 100
Overset time step continuity errors : max local = 2.0450762e-09, sum local = 6.0122472e-13, global = 5.8291738e-14, cumulative = 5.8535834e-12
In manipulateMatrix: true bou: 123 int: 0
amgSolver:  Solving for p, Initial residual = 1.0458726e-07, Final residual = 9.9852976e-08, No Iterations 7
Overset time step continuity errors : max local = 1.8944554e-09, sum local = 5.5988262e-13, global = 4.5835607e-14, cumulative = 5.8994191e-12
In manipulateMatrix: true bou: 123 int: 0
amgSolver:  Solving for p, Initial residual = 9.9639876e-08, Final residual = 9.9639876e-08, No Iterations 0
Overset time step continuity errors : max local = 1.8930379e-09, sum local = 5.5868776e-13, global = 4.552185e-14, cumulative = 5.9449409e-12
ExecutionTime = 3.96 s  ClockTime = 4 s

forces output:
    forces(pressure, viscous)((0.00190599 -3.6216518e-06 3.2833905e-22) (0.00053257259 -4.1393367e-07 8.6954076e-23))
    moment(pressure, viscous)((3.6216518e-08 1.90599e-05 1.0709701e-13) (4.1393367e-09 5.3257259e-06 1.7761112e-11))

Time = 3.008

Courant Number mean: 0.0093073602 max: 0.062450704 velocity magnitude: 1.3141738
In manipulateMatrix: true bou: 123 int: 0
smoothSolver:  Solving for Ux, Initial residual = 3.0556944e-05, Final residual = 1.4327555e-08, No Iterations 2
smoothSolver:  Solving for Uy, Initial residual = 3.6778522e-05, Final residual = 2.2664033e-08, No Iterations 2
In manipulateMatrix: true bou: 123 int: 0
amgSolver:  Solving for p, Initial residual = 1.7175066e-05, Final residual = 2.1495245e-07, No Iterations 100
Overset time step continuity errors : max local = 4.4075151e-09, sum local = 1.2052563e-12, global = 2.3009479e-13, cumulative = 6.1750357e-12
In manipulateMatrix: true bou: 123 int: 0
amgSolver:  Solving for p, Initial residual = 3.3052336e-07, Final residual = 1.0743667e-07, No Iterations 100
Overset time step continuity errors : max local = 2.0490183e-09, sum local = 6.0240822e-13, global = 5.840412e-14, cumulative = 6.2334398e-12
In manipulateMatrix: true bou: 123 int: 0
amgSolver:  Solving for p, Initial residual = 1.0479144e-07, Final residual = 9.9432386e-08, No Iterations 8
Overset time step continuity errors : max local = 1.8826101e-09, sum local = 5.5752726e-13, global = 4.4793879e-14, cumulative = 6.2782337e-12
In manipulateMatrix: true bou: 123 int: 0
amgSolver:  Solving for p, Initial residual = 9.9201055e-08, Final residual = 9.9201055e-08, No Iterations 0
Overset time step continuity errors : max local = 1.8810453e-09, sum local = 5.5623015e-13, global = 4.4451184e-14, cumulative = 6.3226849e-12
ExecutionTime = 4.21 s  ClockTime = 5 s

forces output:
    forces(pressure, viscous)((0.0019059744 -3.6212462e-06 3.2832938e-22) (0.00053256902 -4.1398591e-07 8.695377e-23))
    moment(pressure, viscous)((3.6212462e-08 1.9059744e-05 1.0710959e-13) (4.1398591e-09 5.3256902e-06 1.4910802e-11))

Time = 3.0085

Courant Number mean: 0.009307376 max: 0.062450467 velocity magnitude: 1.3141712
In manipulateMatrix: true bou: 123 int: 0
smoothSolver:  Solving for Ux, Initial residual = 3.0548211e-05, Final residual = 1.4323252e-08, No Iterations 2
smoothSolver:  Solving for Uy, Initial residual = 3.6775067e-05, Final residual = 2.2661983e-08, No Iterations 2
In manipulateMatrix: true bou: 123 int: 0
amgSolver:  Solving for p, Initial residual = 1.7138095e-05, Final residual = 2.1449945e-07, No Iterations 100
Overset time step continuity errors : max local = 4.3981913e-09, sum local = 1.2027225e-12, global = 2.2874367e-13, cumulative = 6.5514286e-12
In manipulateMatrix: true bou: 123 int: 0
amgSolver:  Solving for p, Initial residual = 3.3009694e-07, Final residual = 1.0720365e-07, No Iterations 100
Overset time step continuity errors : max local = 2.0431716e-09, sum local = 6.011048e-13, global = 5.7531363e-14, cumulative = 6.6089599e-12
In manipulateMatrix: true bou: 123 int: 0
amgSolver:  Solving for p, Initial residual = 1.0456499e-07, Final residual = 9.9833897e-08, No Iterations 7
Overset time step continuity errors : max local = 1.8926003e-09, sum local = 5.597815e-13, global = 4.5083713e-14, cumulative = 6.6540436e-12
In manipulateMatrix: true bou: 123 int: 0
amgSolver:  Solving for p, Initial residual = 9.9621075e-08, Final residual = 9.9621075e-08, No Iterations 0
Overset time step continuity errors : max local = 1.8911813e-09, sum local = 5.5858818e-13, global = 4.4770159e-14, cumulative = 6.6988138e-12
ExecutionTime = 4.45 s  ClockTime = 5 s

forces output:
    forces(pressure, viscous)((0.0019059587 -3.6208346e-06 3.2831973e-22) (0.00053256546 -4.1403783e-07 8.6953463e-23))
    moment(pressure, viscous)((3.6208346e-08 1.9059587e-05 1.0712219e-13) (4.1403783e-09 5.3256546e-06 1.2052216e-11))

Time = 3.009

Courant Number mean: 0.0093073917 max: 0.062450231 velocity magnitude: 1.3141687
In manipulateMatrix: true bou: 123 int: 0
smoothSolver:  Solving for Ux, Initial residual = 3.0539478e-05, Final residual = 1.4318951e-08, No Iterations 2
smoothSolver:  Solving for Uy, Initial residual = 3.677161e-05, Final residual = 2.2659934e-08, No Iterations 2
In manipulateMatrix: true bou: 123 int: 0
amgSolver:  Solving for p, Initial residual = 1.7106689e-05, Final residual = 2.1491564e-07, No Iterations 100
Overset time step continuity errors : max local = 4.4042687e-09, sum local = 1.2050625e-12, global = 2.2869529e-13, cumulative = 6.9275091e-12
In manipulateMatrix: true bou: 123 int: 0
amgSolver:  Solving for p, Initial residual = 3.3041611e-07, Final residual = 1.07422e-07, No Iterations 100
Overset time step continuity errors : max local = 2.0461889e-09, sum local = 6.0233223e-13, global = 5.714614e-14, cumulative = 6.9846552e-12
In manipulateMatrix: true bou: 123 int: 0
amgSolver:  Solving for p, Initial residual = 1.0477668e-07, Final residual = 9.9422156e-08, No Iterations 8
Overset time step continuity errors : max local = 1.8798489e-09, sum local = 5.574757e-13, global = 4.3549448e-14, cumulative = 7.0282047e-12
In manipulateMatrix: true bou: 123 int: 0
amgSolver:  Solving for p, Initial residual = 9.9191244e-08, Final residual = 9.9191244e-08, No Iterations 0
Overset time step continuity errors : max local = 1.8782843e-09, sum local = 5.5618096e-13, global = 4.3207089e-14, cumulative = 7.0714118e-12
ExecutionTime = 4.69 s  ClockTime = 5 s

forces output:
    forces(pressure, viscous)((0.0019059432 -3.6204195e-06 3.2831008e-22) (0.00053256189 -4.1408942e-07 8.6953157e-23))
    moment(pressure, viscous)((3.6204195e-08 1.9059432e-05 1.0713475e-13) (4.1408942e-09 5.3256189e-06 9.185366e-12))

Time = 3.0095

Courant Number mean: 0.0093074075 max: 0.062449995 velocity magnitude: 1.3141661
In manipulateMatrix: true bou: 123 int: 0
smoothSolver:  Solving for Ux, Initial residual = 3.0530749e-05, Final residual = 1.4314652e-08, No Iterations 2
smoothSolver:  Solving for Uy, Initial residual = 3.6768155e-05, Final residual = 2.2657895e-08, No Iterations 2
In manipulateMatrix: true bou: 123 int: 0
amgSolver:  Solving for p, Initial residual = 1.7079291e-05, Final residual = 2.1447261e-07, No Iterations 100
Overset time step continuity errors : max local = 4.3942038e-09, sum local = 1.2025846e-12, global = 2.2692259e-13, cumulative = 7.2983343e-12
In manipulateMatrix: true bou: 123 int: 0
amgSolver:  Solving for p, Initial residual = 3.3000214e-07, Final residual = 1.0719559e-07, No Iterations 100
Overset time step continuity errors : max local = 2.0396249e-09, sum local = 6.0106583e-13, global = 5.5886455e-14, cumulative = 7.3542208e-12
In manipulateMatrix: true bou: 123 int: 0
amgSolver:  Solving for p, Initial residual = 1.0455684e-07, Final residual = 9.9830535e-08, No Iterations 7
Overset time step continuity errors : max local = 1.8891258e-09, sum local = 5.5976849e-13, global = 4.3454037e-14, cumulative = 7.3976748e-12
In manipulateMatrix: true bou: 123 int: 0
amgSolver:  Solving for p, Initial residual = 9.9618163e-08, Final residual = 9.9618163e-08, No Iterations 0
Overset time step continuity errors : max local = 1.8877071e-09, sum local = 5.5857769e-13, global = 4.3140846e-14, cumulative = 7.4408157e-12
ExecutionTime = 4.93 s  ClockTime = 5 s

forces output:
    forces(pressure, viscous)((0.0019059275 -3.6199983e-06 3.2830045e-22) (0.00053255833 -4.1414069e-07 8.6952851e-23))
    moment(pressure, viscous)((3.6199983e-08 1.9059275e-05 1.0714732e-13) (4.1414069e-09 5.3255833e-06 6.3102639e-12))

Time = 3.01

Courant Number mean: 0.0093074232 max: 0.062449759 velocity magnitude: 1.3141635
In manipulateMatrix: true bou: 123 int: 0
smoothSolver:  Solving for Ux, Initial residual = 3.0522022e-05, Final residual = 1.4310355e-08, No Iterations 2
smoothSolver:  Solving for Uy, Initial residual = 3.6764701e-05, Final residual = 2.2655856e-08, No Iterations 2
In manipulateMatrix: true bou: 123 int: 0
amgSolver:  Solving for p, Initial residual = 1.7055633e-05, Final residual = 2.1489385e-07, No Iterations 100
Overset time step continuity errors : max local = 4.3998725e-09, sum local = 1.2049528e-12, global = 2.2664512e-13, cumulative = 7.6674608e-12
In manipulateMatrix: true bou: 123 int: 0
amgSolver:  Solving for p, Initial residual = 3.3032782e-07, Final residual = 1.0741755e-07, No Iterations 100
Overset time step continuity errors : max local = 2.0422503e-09, sum local = 6.0231358e-13, global = 5.5291217e-14, cumulative = 7.722752e-12
In manipulateMatrix: true bou: 123 int: 0
amgSolver:  Solving for p, Initial residual = 1.0477205e-07, Final residual = 9.9423012e-08, No Iterations 8
Overset time step continuity errors : max local = 1.875991e-09, sum local = 5.5748633e-13, global = 4.1713006e-14, cumulative = 7.764465e-12
In manipulateMatrix: true bou: 123 int: 0
amgSolver:  Solving for p, Initial residual = 9.9192663e-08, Final residual = 9.9192663e-08, No Iterations 0
Overset time step continuity errors : max local = 1.8744302e-09, sum local = 5.5619472e-13, global = 4.1371176e-14, cumulative = 7.8058362e-12
ExecutionTime = 5.19 s  ClockTime = 6 s

forces output:
    forces(pressure, viscous)((0.001905912 -3.6195736e-06 3.2829081e-22) (0.00053255477 -4.1419163e-07 8.6952544e-23))
    moment(pressure, viscous)((3.6195736e-08 1.905912e-05 1.0715987e-13) (4.1419163e-09 5.3255477e-06 3.4269215e-12))

Time = 3.0105

Courant Number mean: 0.009307439 max: 0.062449523 velocity magnitude: 1.3141609
In manipulateMatrix: true bou: 123 int: 0
smoothSolver:  Solving for Ux, Initial residual = 3.0513298e-05, Final residual = 1.4306061e-08, No Iterations 2
smoothSolver:  Solving for Uy, Initial residual = 3.6761244e-05, Final residual = 2.2653816e-08, No Iterations 2
In manipulateMatrix: true bou: 123 int: 0
amgSolver:  Solving for p, Initial residual = 1.699595e-05, Final residual = 2.1445734e-07, No Iterations 100
Overset time step continuity errors : max local = 4.3898384e-09, sum local = 1.2025115e-12, global = 2.2483964e-13, cumulative = 8.0306758e-12
In manipulateMatrix: true bou: 123 int: 0
amgSolver:  Solving for p, Initial residual = 3.2991373e-07, Final residual = 1.0719541e-07, No Iterations 100
Overset time step continuity errors : max local = 2.0356906e-09, sum local = 6.0107111e-13, global = 5.3997499e-14, cumulative = 8.0846733e-12
In manipulateMatrix: true bou: 123 int: 0
amgSolver:  Solving for p, Initial residual = 1.0455632e-07, Final residual = 9.9835038e-08, No Iterations 7
Overset time step continuity errors : max local = 1.8852574e-09, sum local = 5.5979955e-13, global = 4.1581897e-14, cumulative = 8.1262552e-12
In manipulateMatrix: true bou: 123 int: 0
amgSolver:  Solving for p, Initial residual = 9.9623434e-08, Final residual = 9.9623434e-08, No Iterations 0
Overset time step continuity errors : max local = 1.8838355e-09, sum local = 5.5861302e-13, global = 4.1269125e-14, cumulative = 8.1675244e-12
ExecutionTime = 5.44 s  ClockTime = 6 s

forces output:
    forces(pressure, viscous)((0.0019058964 -3.6191483e-06 3.2828118e-22) (0.00053255121 -4.1424225e-07 8.6952238e-23))
    moment(pressure, viscous)((3.6191483e-08 1.9058964e-05 1.0717236e-13) (4.1424225e-09 5.3255121e-06 5.3535114e-13))

Time = 3.011

Courant Number mean: 0.0093074548 max: 0.062449287 velocity magnitude: 1.3141583
In manipulateMatrix: true bou: 123 int: 0
smoothSolver:  Solving for Ux, Initial residual = 3.0504577e-05, Final residual = 1.430177e-08, No Iterations 2
smoothSolver:  Solving for Uy, Initial residual = 3.6757787e-05, Final residual = 2.2651778e-08, No Iterations 2
In manipulateMatrix: true bou: 123 int: 0
amgSolver:  Solving for p, Initial residual = 1.694703e-05, Final residual = 2.148785e-07, No Iterations 100
Overset time step continuity errors : max local = 4.3957311e-09, sum local = 1.2048792e-12, global = 2.2466728e-13, cumulative = 8.3921916e-12
In manipulateMatrix: true bou: 123 int: 0
amgSolver:  Solving for p, Initial residual = 3.3023868e-07, Final residual = 1.0741733e-07, No Iterations 100
Overset time step continuity errors : max local = 2.038502e-09, sum local = 6.0231851e-13, global = 5.3496812e-14, cumulative = 8.4456884e-12
In manipulateMatrix: true bou: 123 int: 0
amgSolver:  Solving for p, Initial residual = 1.0477149e-07, Final residual = 9.9427366e-08, No Iterations 8
Overset time step continuity errors : max local = 1.8723144e-09, sum local = 5.5751648e-13, global = 3.9936113e-14, cumulative = 8.4856246e-12
In manipulateMatrix: true bou: 123 int: 0
amgSolver:  Solving for p, Initial residual = 9.9197788e-08, Final residual = 9.9197788e-08, No Iterations 0
Overset time step continuity errors : max local = 1.8707504e-09, sum local = 5.5622917e-13, global = 3.959476e-14, cumulative = 8.5252193e-12
ExecutionTime = 5.68 s  ClockTime = 6 s

forces output:
    forces(pressure, viscous)((0.0019058808 -3.6187204e-06 3.2827155e-22) (0.00053254766 -4.1429254e-07 8.6951931e-23))
    moment(pressure, viscous)((3.6187204e-08 1.9058808e-05 1.0718482e-13) (4.1429254e-09 5.3254766e-06 -2.3644352e-12))

Time = 3.0115

Courant Number mean: 0.0093074706 max: 0.062449051 velocity magnitude: 1.3141557
In manipulateMatrix: true bou: 123 int: 0
smoothSolver:  Solving for Ux, Initial residual = 3.0495862e-05, Final residual = 1.429748e-08, No Iterations 2
smoothSolver:  Solving for Uy, Initial residual = 3.6754343e-05, Final residual = 2.264974e-08, No Iterations 2
In manipulateMatrix: true bou: 123 int: 0
amgSolver:  Solving for p, Initial residual = 1.6922229e-05, Final residual = 2.1443123e-07, No Iterations 100
Overset time step continuity errors : max local = 4.3859434e-09, sum local = 1.2023774e-12, global = 2.2306076e-13, cumulative = 8.7482801e-12
In manipulateMatrix: true bou: 123 int: 0
amgSolver:  Solving for p, Initial residual = 3.2982078e-07, Final residual = 1.0718892e-07, No Iterations 100
Overset time step continuity errors : max local = 2.0322085e-09, sum local = 6.0104078e-13, global = 5.2390526e-14, cumulative = 8.8006706e-12
In manipulateMatrix: true bou: 123 int: 0
amgSolver:  Solving for p, Initial residual = 1.0454958e-07, Final residual = 9.9832887e-08, No Iterations 7
Overset time step continuity errors : max local = 1.8818482e-09, sum local = 5.5979318e-13, global = 3.9989815e-14, cumulative = 8.8406604e-12
In manipulateMatrix: true bou: 123 int: 0
amgSolver:  Solving for p, Initial residual = 9.9621808e-08, Final residual = 9.9621808e-08, No Iterations 0
Overset time step continuity errors : max local = 1.8804352e-09, sum local = 5.586096e-13, global = 3.9677424e-14, cumulative = 8.8803378e-12
ExecutionTime = 5.92 s  ClockTime = 6 s

forces output:
    forces(pressure, viscous)((0.0019058652 -3.6182863e-06 3.2826194e-22) (0.0005325441 -4.1434251e-07 8.6951625e-23))
    moment(pressure, viscous)((3.6182863e-08 1.9058652e-05 1.071973e-13) (4.1434251e-09 5.325441e-06 -5.2724254e-12))

Time = 3.012

Courant Number mean: 0.0093074864 max: 0.062448816 velocity magnitude: 1.3141531
In manipulateMatrix: true bou: 123 int: 0
smoothSolver:  Solving for Ux, Initial residual = 3.0487147e-05, Final residual = 1.4293192e-08, No Iterations 2
smoothSolver:  Solving for Uy, Initial residual = 3.6750892e-05, Final residual = 2.2647703e-08, No Iterations 2
In manipulateMatrix: true bou: 123 int: 0
amgSolver:  Solving for p, Initial residual = 1.6898595e-05, Final residual = 2.1484389e-07, No Iterations 100
Overset time step continuity errors : max local = 4.3922009e-09, sum local = 1.2046974e-12, global = 2.2312255e-13, cumulative = 9.1034604e-12
In manipulateMatrix: true bou: 123 int: 0
amgSolver:  Solving for p, Initial residual = 3.3013661e-07, Final residual = 1.0740556e-07, No Iterations 100
Overset time step continuity errors : max local = 2.0354084e-09, sum local = 6.0225863e-13, global = 5.2106974e-14, cumulative = 9.1555674e-12
In manipulateMatrix: true bou: 123 int: 0
amgSolver:  Solving for p, Initial residual = 1.0475974e-07, Final residual = 9.9419868e-08, No Iterations 8
Overset time step continuity errors : max local = 1.8692938e-09, sum local = 5.5748009e-13, global = 3.8561043e-14, cumulative = 9.1941284e-12
In manipulateMatrix: true bou: 123 int: 0
amgSolver:  Solving for p, Initial residual = 9.9190817e-08, Final residual = 9.9190817e-08, No Iterations 0
Overset time step continuity errors : max local = 1.8677335e-09, sum local = 5.5619571e-13, global = 3.8219999e-14, cumulative = 9.2323484e-12
ExecutionTime = 6.16 s  ClockTime = 7 s

forces output:
    forces(pressure, viscous)((0.0019058497 -3.6178485e-06 3.2825233e-22) (0.00053254054 -4.1439216e-07 8.6951319e-23))
    moment(pressure, viscous)((3.6178485e-08 1.9058497e-05 1.0720976e-13) (4.1439216e-09 5.3254054e-06 -8.1886073e-12))

Time = 3.0125

Courant Number mean: 0.0093075022 max: 0.06244858 velocity magnitude: 1.3141505
In manipulateMatrix: true bou: 123 int: 0
smoothSolver:  Solving for Ux, Initial residual = 3.0478435e-05, Final residual = 1.4288905e-08, No Iterations 2
smoothSolver:  Solving for Uy, Initial residual = 3.6747449e-05, Final residual = 2.264567e-08, No Iterations 2
In manipulateMatrix: true bou: 123 int: 0
amgSolver:  Solving for p, Initial residual = 1.6883045e-05, Final residual = 2.1439456e-07, No Iterations 100
Overset time step continuity errors : max local = 4.3827996e-09, sum local = 1.2021839e-12, global = 2.2171505e-13, cumulative = 9.4540635e-12
In manipulateMatrix: true bou: 123 int: 0
amgSolver:  Solving for p, Initial residual = 3.2971303e-07, Final residual = 1.071754e-07, No Iterations 100
Overset time step continuity errors : max local = 2.0294757e-09, sum local = 6.0097105e-13, global = 5.1181284e-14, cumulative = 9.5052447e-12
In manipulateMatrix: true bou: 123 int: 0
amgSolver:  Solving for p, Initial residual = 1.0453624e-07, Final residual = 9.9823173e-08, No Iterations 7
Overset time step continuity errors : max local = 1.879174e-09, sum local = 5.5974437e-13, global = 3.8792464e-14, cumulative = 9.5440372e-12
In manipulateMatrix: true bou: 123 int: 0
amgSolver:  Solving for p, Initial residual = 9.9612527e-08, Final residual = 9.9612527e-08, No Iterations 0
Overset time step continuity errors : max local = 1.8777578e-09, sum local = 5.5856323e-13, global = 3.8480402e-14, cumulative = 9.5825176e-12
ExecutionTime = 6.42 s  ClockTime = 7 s

forces output:
    forces(pressure, viscous)((0.0019058341 -3.6174045e-06 3.2824273e-22) (0.00053253699 -4.1444148e-07 8.6951012e-23))
    moment(pressure, viscous)((3.6174045e-08 1.9058341e-05 1.0722225e-13) (4.1444148e-09 5.3253699e-06 -1.1112969e-11))

Time = 3.013

Courant Number mean: 0.009307518 max: 0.062448344 velocity magnitude: 1.3141479
In manipulateMatrix: true bou: 123 int: 0
smoothSolver:  Solving for Ux, Initial residual = 3.0469724e-05, Final residual = 1.4284618e-08, No Iterations 2
smoothSolver:  Solving for Uy, Initial residual = 3.6744015e-05, Final residual = 2.2643648e-08, No Iterations 2
In manipulateMatrix: true bou: 123 int: 0
amgSolver:  Solving for p, Initial residual = 1.6869221e-05, Final residual = 2.1480354e-07, No Iterations 100
Overset time step continuity errors : max local = 4.3892508e-09, sum local = 1.2044832e-12, global = 2.2189613e-13, cumulative = 9.8044137e-12
In manipulateMatrix: true bou: 123 int: 0
amgSolver:  Solving for p, Initial residual = 3.3002293e-07, Final residual = 1.073897e-07, No Iterations 100
Overset time step continuity errors : max local = 2.0328656e-09, sum local = 6.0217576e-13, global = 5.1008269e-14, cumulative = 9.855422e-12
In manipulateMatrix: true bou: 123 int: 0
amgSolver:  Solving for p, Initial residual = 1.0474418e-07, Final residual = 9.9407842e-08, No Iterations 8
Overset time step continuity errors : max local = 1.8668155e-09, sum local = 5.5741826e-13, global = 3.7474518e-14, cumulative = 9.8928965e-12
In manipulateMatrix: true bou: 123 int: 0
amgSolver:  Solving for p, Initial residual = 9.9179232e-08, Final residual = 9.9179232e-08, No Iterations 0
Overset time step continuity errors : max local = 1.8652555e-09, sum local = 5.5613635e-13, global = 3.713378e-14, cumulative = 9.9300303e-12
ExecutionTime = 6.66 s  ClockTime = 7 s

forces output:
    forces(pressure, viscous)((0.0019058186 -3.6169569e-06 3.2823313e-22) (0.00053253344 -4.1449047e-07 8.6950706e-23))
    moment(pressure, viscous)((3.6169569e-08 1.9058186e-05 1.0723473e-13) (4.1449047e-09 5.3253344e-06 -1.4045497e-11))

Time = 3.0135

Courant Number mean: 0.0093075338 max: 0.062448109 velocity magnitude: 1.3141453
In manipulateMatrix: true bou: 123 int: 0
smoothSolver:  Solving for Ux, Initial residual = 3.0461015e-05, Final residual = 1.4280333e-08, No Iterations 2
smoothSolver:  Solving for Uy, Initial residual = 3.6740587e-05, Final residual = 2.2641625e-08, No Iterations 2
In manipulateMatrix: true bou: 123 int: 0
amgSolver:  Solving for p, Initial residual = 1.6856275e-05, Final residual = 2.1435322e-07, No Iterations 100
Overset time step continuity errors : max local = 4.3799107e-09, sum local = 1.2019642e-12, global = 2.2052553e-13, cumulative = 1.0150556e-11
In manipulateMatrix: true bou: 123 int: 0
amgSolver:  Solving for p, Initial residual = 3.2959757e-07, Final residual = 1.0715901e-07, No Iterations 100
Overset time step continuity errors : max local = 2.0269892e-09, sum local = 6.0088521e-13, global = 5.0116662e-14, cumulative = 1.0200673e-11
In manipulateMatrix: true bou: 123 int: 0
amgSolver:  Solving for p, Initial residual = 1.0452026e-07, Final residual = 9.9810406e-08, No Iterations 7
Overset time step continuity errors : max local = 1.8767525e-09, sum local = 5.5967839e-13, global = 3.7738665e-14, cumulative = 1.0238411e-11
In manipulateMatrix: true bou: 123 int: 0
amgSolver:  Solving for p, Initial residual = 9.960007e-08, Final residual = 9.960007e-08, No Iterations 0
Overset time step continuity errors : max local = 1.8753366e-09, sum local = 5.5849892e-13, global = 3.7426857e-14, cumulative = 1.0275838e-11
ExecutionTime = 6.91 s  ClockTime = 7 s

forces output:
    forces(pressure, viscous)((0.001905803 -3.6165032e-06 3.2822355e-22) (0.00053252989 -4.1453913e-07 8.6950399e-23))
    moment(pressure, viscous)((3.6165032e-08 1.905803e-05 1.0724722e-13) (4.1453913e-09 5.3252989e-06 -1.6986181e-11))

Time = 3.014

Courant Number mean: 0.0093075496 max: 0.062447873 velocity magnitude: 1.3141427
In manipulateMatrix: true bou: 123 int: 0
smoothSolver:  Solving for Ux, Initial residual = 3.045231e-05, Final residual = 1.4276049e-08, No Iterations 2
smoothSolver:  Solving for Uy, Initial residual = 3.6737153e-05, Final residual = 2.2639599e-08, No Iterations 2
In manipulateMatrix: true bou: 123 int: 0
amgSolver:  Solving for p, Initial residual = 1.6849508e-05, Final residual = 2.1476464e-07, No Iterations 100
Overset time step continuity errors : max local = 4.3863139e-09, sum local = 1.2042771e-12, global = 2.2066403e-13, cumulative = 1.0496502e-11
In manipulateMatrix: true bou: 123 int: 0
amgSolver:  Solving for p, Initial residual = 3.2990989e-07, Final residual = 1.0737484e-07, No Iterations 100
Overset time step continuity errors : max local = 2.0303232e-09, sum local = 6.0209845e-13, global = 4.9903235e-14, cumulative = 1.0546405e-11
In manipulateMatrix: true bou: 123 int: 0
amgSolver:  Solving for p, Initial residual = 1.0472971e-07, Final residual = 9.9396733e-08, No Iterations 8
Overset time step continuity errors : max local = 1.8643411e-09, sum local = 5.5736151e-13, global = 3.6381614e-14, cumulative = 1.0582787e-11
In manipulateMatrix: true bou: 123 int: 0
amgSolver:  Solving for p, Initial residual = 9.9168471e-08, Final residual = 9.9168471e-08, No Iterations 0
Overset time step continuity errors : max local = 1.8627813e-09, sum local = 5.5608154e-13, global = 3.6041197e-14, cumulative = 1.0618828e-11
ExecutionTime = 7.15 s  ClockTime = 8 s

forces output:
    forces(pressure, viscous)((0.0019057875 -3.6160457e-06 3.2821397e-22) (0.00053252634 -4.1458747e-07 8.6950093e-23))
    moment(pressure, viscous)((3.6160457e-08 1.9057875e-05 1.0725971e-13) (4.1458747e-09 5.3252634e-06 -1.9935006e-11))

Time = 3.0145

Courant Number mean: 0.0093075654 max: 0.062447638 velocity magnitude: 1.3141401
In manipulateMatrix: true bou: 123 int: 0
smoothSolver:  Solving for Ux, Initial residual = 3.044362e-05, Final residual = 1.4271765e-08, No Iterations 2
smoothSolver:  Solving for Uy, Initial residual = 3.6733715e-05, Final residual = 2.2637579e-08, No Iterations 2
In manipulateMatrix: true bou: 123 int: 0
amgSolver:  Solving for p, Initial residual = 1.6846274e-05, Final residual = 2.1431586e-07, No Iterations 100
Overset time step continuity errors : max local = 4.3768034e-09, sum local = 1.2017667e-12, global = 2.1920371e-13, cumulative = 1.0838032e-11
In manipulateMatrix: true bou: 123 int: 0
amgSolver:  Solving for p, Initial residual = 3.2948676e-07, Final residual = 1.0714536e-07, No Iterations 100
Overset time step continuity errors : max local = 2.0242887e-09, sum local = 6.0081463e-13, global = 4.8929963e-14, cumulative = 1.0886962e-11
In manipulateMatrix: true bou: 123 int: 0
amgSolver:  Solving for p, Initial residual = 1.0450704e-07, Final residual = 9.9800381e-08, No Iterations 7
Overset time step continuity errors : max local = 1.8741117e-09, sum local = 5.5962773e-13, global = 3.6563714e-14, cumulative = 1.0923525e-11
In manipulateMatrix: true bou: 123 int: 0
amgSolver:  Solving for p, Initial residual = 9.9590403e-08, Final residual = 9.9590403e-08, No Iterations 0
Overset time step continuity errors : max local = 1.8726996e-09, sum local = 5.5845029e-13, global = 3.625221e-14, cumulative = 1.0959778e-11
ExecutionTime = 7.39 s  ClockTime = 8 s

forces output:
    forces(pressure, viscous)((0.001905772 -3.6155821e-06 3.2820441e-22) (0.00053252279 -4.1463547e-07 8.6949786e-23))
    moment(pressure, viscous)((3.6155821e-08 1.905772e-05 1.0727223e-13) (4.1463547e-09 5.3252279e-06 -2.2891962e-11))

Time = 3.015

Courant Number mean: 0.0093075811 max: 0.062447403 velocity magnitude: 1.3141375
In manipulateMatrix: true bou: 123 int: 0
smoothSolver:  Solving for Ux, Initial residual = 3.043493e-05, Final residual = 1.4267483e-08, No Iterations 2
smoothSolver:  Solving for Uy, Initial residual = 3.6730271e-05, Final residual = 2.2635564e-08, No Iterations 2
In manipulateMatrix: true bou: 123 int: 0
amgSolver:  Solving for p, Initial residual = 1.6843759e-05, Final residual = 2.1472886e-07, No Iterations 100
Overset time step continuity errors : max local = 4.3830121e-09, sum local = 1.2040885e-12, global = 2.1923988e-13, cumulative = 1.1179018e-11
In manipulateMatrix: true bou: 123 int: 0
amgSolver:  Solving for p, Initial residual = 3.2980164e-07, Final residual = 1.0736247e-07, No Iterations 100
Overset time step continuity errors : max local = 2.027442e-09, sum local = 6.0203503e-13, global = 4.8623271e-14, cumulative = 1.1227641e-11
In manipulateMatrix: true bou: 123 int: 0
amgSolver:  Solving for p, Initial residual = 1.0471776e-07, Final residual = 9.9388246e-08, No Iterations 8
Overset time step continuity errors : max local = 1.8615272e-09, sum local = 5.5731948e-13, global = 3.51154e-14, cumulative = 1.1262756e-11
In manipulateMatrix: true bou: 123 int: 0
amgSolver:  Solving for p, Initial residual = 9.9160429e-08, Final residual = 9.9160429e-08, No Iterations 0
Overset time step continuity errors : max local = 1.8599676e-09, sum local = 5.5604198e-13, global = 3.4775337e-14, cumulative = 1.1297532e-11
ExecutionTime = 7.64 s  ClockTime = 8 s

forces output:
    forces(pressure, viscous)((0.0019057565 -3.6151149e-06 3.2819485e-22) (0.00053251924 -4.1468314e-07 8.694948e-23))
    moment(pressure, viscous)((3.6151149e-08 1.9057565e-05 1.0728473e-13) (4.1468314e-09 5.3251924e-06 -2.5857035e-11))

Time = 3.0155

Courant Number mean: 0.0093075969 max: 0.062447167 velocity magnitude: 1.3141348
In manipulateMatrix: true bou: 123 int: 0
smoothSolver:  Solving for Ux, Initial residual = 3.0426242e-05, Final residual = 1.4263201e-08, No Iterations 2
smoothSolver:  Solving for Uy, Initial residual = 3.6726826e-05, Final residual = 2.2633551e-08, No Iterations 2
In manipulateMatrix: true bou: 123 int: 0
amgSolver:  Solving for p, Initial residual = 1.6843119e-05, Final residual = 2.1428863e-07, No Iterations 100
Overset time step continuity errors : max local = 4.3734017e-09, sum local = 1.2016259e-12, global = 2.1766985e-13, cumulative = 1.1515201e-11
In manipulateMatrix: true bou: 123 int: 0
amgSolver:  Solving for p, Initial residual = 3.2938786e-07, Final residual = 1.071381e-07, No Iterations 100
Overset time step continuity errors : max local = 2.0212636e-09, sum local = 6.0077987e-13, global = 4.7543779e-14, cumulative = 1.1562745e-11
In manipulateMatrix: true bou: 123 int: 0
amgSolver:  Solving for p, Initial residual = 1.0450004e-07, Final residual = 9.9796704e-08, No Iterations 7
Overset time step continuity errors : max local = 1.8711496e-09, sum local = 5.5961267e-13, global = 3.519047e-14, cumulative = 1.1597936e-11
In manipulateMatrix: true bou: 123 int: 0
amgSolver:  Solving for p, Initial residual = 9.9587192e-08, Final residual = 9.9587192e-08, No Iterations 0
Overset time step continuity errors : max local = 1.8697325e-09, sum local = 5.5843782e-13, global = 3.4879278e-14, cumulative = 1.1632815e-11
ExecutionTime = 7.89 s  ClockTime = 8 s

forces output:
    forces(pressure, viscous)((0.0019057409 -3.6146415e-06 3.281853e-22) (0.0005325157 -4.1473049e-07 8.6949173e-23))
    moment(pressure, viscous)((3.6146415e-08 1.9057409e-05 1.0729726e-13) (4.1473049e-09 5.325157e-06 -2.8830213e-11))

Time = 3.016

Courant Number mean: 0.0093076128 max: 0.062446932 velocity magnitude: 1.3141322
In manipulateMatrix: true bou: 123 int: 0
smoothSolver:  Solving for Ux, Initial residual = 3.0417556e-05, Final residual = 1.4258924e-08, No Iterations 2
smoothSolver:  Solving for Uy, Initial residual = 3.6723378e-05, Final residual = 2.2631538e-08, No Iterations 2
In manipulateMatrix: true bou: 123 int: 0
amgSolver:  Solving for p, Initial residual = 1.6814919e-05, Final residual = 2.1470693e-07, No Iterations 100
Overset time step continuity errors : max local = 4.379487e-09, sum local = 1.2039775e-12, global = 2.1760992e-13, cumulative = 1.1850425e-11
In manipulateMatrix: true bou: 123 int: 0
amgSolver:  Solving for p, Initial residual = 3.2970723e-07, Final residual = 1.0735876e-07, No Iterations 100
Overset time step continuity errors : max local = 2.0242968e-09, sum local = 6.0202022e-13, global = 4.7147447e-14, cumulative = 1.1897572e-11
In manipulateMatrix: true bou: 123 int: 0
amgSolver:  Solving for p, Initial residual = 1.0471423e-07, Final residual = 9.9388178e-08, No Iterations 8
Overset time step continuity errors : max local = 1.8584464e-09, sum local = 5.5732461e-13, global = 3.3654426e-14, cumulative = 1.1931227e-11
In manipulateMatrix: true bou: 123 int: 0
amgSolver:  Solving for p, Initial residual = 9.9160835e-08, Final residual = 9.9160835e-08, No Iterations 0
Overset time step continuity errors : max local = 1.8568853e-09, sum local = 5.5604976e-13, global = 3.3314715e-14, cumulative = 1.1964541e-11
ExecutionTime = 8.13 s  ClockTime = 8 s

forces output:
    forces(pressure, viscous)((0.0019057254 -3.6141687e-06 3.2817575e-22) (0.00053251215 -4.147775e-07 8.6948867e-23))
    moment(pressure, viscous)((3.6141687e-08 1.9057254e-05 1.073097e-13) (4.147775e-09 5.3251215e-06 -3.1811483e-11))

Time = 3.0165

Courant Number mean: 0.0093076286 max: 0.062446697 velocity magnitude: 1.3141296
In manipulateMatrix: true bou: 123 int: 0
smoothSolver:  Solving for Ux, Initial residual = 3.0408871e-05, Final residual = 1.4254647e-08, No Iterations 2
smoothSolver:  Solving for Uy, Initial residual = 3.6719927e-05, Final residual = 2.2629532e-08, No Iterations 2
In manipulateMatrix: true bou: 123 int: 0
amgSolver:  Solving for p, Initial residual = 1.6792941e-05, Final residual = 2.142743e-07, No Iterations 100
Overset time step continuity errors : max local = 4.3697264e-09, sum local = 1.2015574e-12, global = 2.1590979e-13, cumulative = 1.2180451e-11
In manipulateMatrix: true bou: 123 int: 0
amgSolver:  Solving for p, Initial residual = 3.2930041e-07, Final residual = 1.0713887e-07, No Iterations 100
Overset time step continuity errors : max local = 2.0179209e-09, sum local = 6.0079015e-13, global = 4.5943158e-14, cumulative = 1.2226394e-11
In manipulateMatrix: true bou: 123 int: 0
amgSolver:  Solving for p, Initial residual = 1.045009e-07, Final residual = 9.9801012e-08, No Iterations 7
Overset time step continuity errors : max local = 1.8678617e-09, sum local = 5.5964238e-13, global = 3.3603942e-14, cumulative = 1.2259998e-11
In manipulateMatrix: true bou: 123 int: 0
amgSolver:  Solving for p, Initial residual = 9.9592075e-08, Final residual = 9.9592075e-08, No Iterations 0
Overset time step continuity errors : max local = 1.8664448e-09, sum local = 5.5847071e-13, global = 3.3293141e-14, cumulative = 1.2293292e-11
ExecutionTime = 8.37 s  ClockTime = 9 s

forces output:
    forces(pressure, viscous)((0.0019057099 -3.6136903e-06 3.2816622e-22) (0.00053250861 -4.1482418e-07 8.694856e-23))
    moment(pressure, viscous)((3.6136903e-08 1.9057099e-05 1.0732215e-13) (4.1482418e-09 5.3250861e-06 -3.4800832e-11))

Time = 3.017

Courant Number mean: 0.0093076444 max: 0.062446462 velocity magnitude: 1.3141269
In manipulateMatrix: true bou: 123 int: 0
smoothSolver:  Solving for Ux, Initial residual = 3.0400186e-05, Final residual = 1.4250372e-08, No Iterations 2
smoothSolver:  Solving for Uy, Initial residual = 3.6716469e-05, Final residual = 2.262753e-08, No Iterations 2
In manipulateMatrix: true bou: 123 int: 0
amgSolver:  Solving for p, Initial residual = 1.6793161e-05, Final residual = 2.1470304e-07, No Iterations 100
Overset time step continuity errors : max local = 4.375654e-09, sum local = 1.2039676e-12, global = 2.1569866e-13, cumulative = 1.250899e-11
In manipulateMatrix: true bou: 123 int: 0
amgSolver:  Solving for p, Initial residual = 3.296319e-07, Final residual = 1.0736549e-07, No Iterations 100
Overset time step continuity errors : max local = 2.0207289e-09, sum local = 6.0206394e-13, global = 4.5401347e-14, cumulative = 1.2554392e-11
In manipulateMatrix: true bou: 123 int: 0
amgSolver:  Solving for p, Initial residual = 1.04721e-07, Final residual = 9.9398564e-08, No Iterations 8
Overset time step continuity errors : max local = 1.8549438e-09, sum local = 5.573884e-13, global = 3.1924538e-14, cumulative = 1.2586316e-11
In manipulateMatrix: true bou: 123 int: 0
amgSolver:  Solving for p, Initial residual = 9.9171895e-08, Final residual = 9.9171895e-08, No Iterations 0
Overset time step continuity errors : max local = 1.8533865e-09, sum local = 5.5611731e-13, global = 3.1585308e-14, cumulative = 1.2617901e-11
ExecutionTime = 8.61 s  ClockTime = 9 s

forces output:
    forces(pressure, viscous)((0.0019056944 -3.6132081e-06 3.2815668e-22) (0.00053250507 -4.1487054e-07 8.6948254e-23))
    moment(pressure, viscous)((3.6132081e-08 1.9056944e-05 1.0733459e-13) (4.1487054e-09 5.3250507e-06 -3.7798248e-11))

Time = 3.0175

Courant Number mean: 0.0093076602 max: 0.062446227 velocity magnitude: 1.3141243
In manipulateMatrix: true bou: 123 int: 0
smoothSolver:  Solving for Ux, Initial residual = 3.0391505e-05, Final residual = 1.4246098e-08, No Iterations 2
smoothSolver:  Solving for Uy, Initial residual = 3.6713009e-05, Final residual = 2.2625532e-08, No Iterations 2
In manipulateMatrix: true bou: 123 int: 0
amgSolver:  Solving for p, Initial residual = 1.680537e-05, Final residual = 2.142671e-07, No Iterations 100
Overset time step continuity errors : max local = 4.3656733e-09, sum local = 1.201529e-12, global = 2.1392698e-13, cumulative = 1.2831828e-11
In manipulateMatrix: true bou: 123 int: 0
amgSolver:  Solving for p, Initial residual = 3.2922352e-07, Final residual = 1.0714444e-07, No Iterations 100
Overset time step continuity errors : max local = 2.0142069e-09, sum local = 6.0082733e-13, global = 4.4137445e-14, cumulative = 1.2875966e-11
In manipulateMatrix: true bou: 123 int: 0
amgSolver:  Solving for p, Initial residual = 1.0450641e-07, Final residual = 9.9810622e-08, No Iterations 7
Overset time step continuity errors : max local = 1.8642119e-09, sum local = 5.5970182e-13, global = 3.1813786e-14, cumulative = 1.290778e-11
In manipulateMatrix: true bou: 123 int: 0
amgSolver:  Solving for p, Initial residual = 9.960212e-08, Final residual = 9.960212e-08, No Iterations 0
Overset time step continuity errors : max local = 1.8627971e-09, sum local = 5.5853262e-13, global = 3.1503394e-14, cumulative = 1.2939283e-11
ExecutionTime = 8.87 s  ClockTime = 9 s

forces output:
    forces(pressure, viscous)((0.0019056789 -3.6127197e-06 3.2814716e-22) (0.00053250153 -4.1491656e-07 8.6947947e-23))
    moment(pressure, viscous)((3.6127197e-08 1.9056789e-05 1.0734706e-13) (4.1491656e-09 5.3250153e-06 -4.0803717e-11))

Time = 3.018

Courant Number mean: 0.0093076761 max: 0.062445992 velocity magnitude: 1.3141216
In manipulateMatrix: true bou: 123 int: 0
smoothSolver:  Solving for Ux, Initial residual = 3.0382824e-05, Final residual = 1.4241824e-08, No Iterations 2
smoothSolver:  Solving for Uy, Initial residual = 3.6709542e-05, Final residual = 2.2623531e-08, No Iterations 2
In manipulateMatrix: true bou: 123 int: 0
amgSolver:  Solving for p, Initial residual = 1.6814029e-05, Final residual = 2.1462918e-07, No Iterations 100
Overset time step continuity errors : max local = 4.3709391e-09, sum local = 1.2035654e-12, global = 2.1391072e-13, cumulative = 1.3153194e-11
In manipulateMatrix: true bou: 123 int: 0
amgSolver:  Solving for p, Initial residual = 3.2949072e-07, Final residual = 1.0733482e-07, No Iterations 100
Overset time step continuity errors : max local = 2.0168637e-09, sum local = 6.0189793e-13, global = 4.3829805e-14, cumulative = 1.3197023e-11
In manipulateMatrix: true bou: 123 int: 0
amgSolver:  Solving for p, Initial residual = 1.0469103e-07, Final residual = 9.9988786e-08, No Iterations 7
Overset time step continuity errors : max local = 1.866624e-09, sum local = 5.6070371e-13, global = 3.1487848e-14, cumulative = 1.3228511e-11
In manipulateMatrix: true bou: 123 int: 0
amgSolver:  Solving for p, Initial residual = 9.9779979e-08, Final residual = 9.9779979e-08, No Iterations 0
Overset time step continuity errors : max local = 1.8652101e-09, sum local = 5.5953278e-13, global = 3.117697e-14, cumulative = 1.3259688e-11
ExecutionTime = 9.11 s  ClockTime = 9 s

forces output:
    forces(pressure, viscous)((0.0019056634 -3.6122271e-06 3.2813765e-22) (0.00053249799 -4.1496224e-07 8.6947641e-23))
    moment(pressure, viscous)((3.6122271e-08 1.9056634e-05 1.0735953e-13) (4.1496224e-09 5.3249799e-06 -4.3817228e-11))

Time = 3.0185

Courant Number mean: 0.0093076919 max: 0.062445757 velocity magnitude: 1.314119
In manipulateMatrix: true bou: 123 int: 0
smoothSolver:  Solving for Ux, Initial residual = 3.0374148e-05, Final residual = 1.4237553e-08, No Iterations 2
smoothSolver:  Solving for Uy, Initial residual = 3.6706075e-05, Final residual = 2.2621527e-08, No Iterations 2
In manipulateMatrix: true bou: 123 int: 0
amgSolver:  Solving for p, Initial residual = 1.6818807e-05, Final residual = 2.1465646e-07, No Iterations 100
Overset time step continuity errors : max local = 4.3700509e-09, sum local = 1.2037243e-12, global = 2.1319707e-13, cumulative = 1.3472885e-11
In manipulateMatrix: true bou: 123 int: 0
amgSolver:  Solving for p, Initial residual = 3.2947935e-07, Final residual = 1.0735423e-07, No Iterations 100
Overset time step continuity errors : max local = 2.0157937e-09, sum local = 6.0200975e-13, global = 4.31503e-14, cumulative = 1.3516036e-11
In manipulateMatrix: true bou: 123 int: 0
amgSolver:  Solving for p, Initial residual = 1.0470987e-07, Final residual = 9.9393838e-08, No Iterations 8
Overset time step continuity errors : max local = 1.8501236e-09, sum local = 5.5737019e-13, global = 2.9697074e-14, cumulative = 1.3545733e-11
In manipulateMatrix: true bou: 123 int: 0
amgSolver:  Solving for p, Initial residual = 9.9167817e-08, Final residual = 9.9167817e-08, No Iterations 0
Overset time step continuity errors : max local = 1.848565e-09, sum local = 5.5610272e-13, global = 2.9358372e-14, cumulative = 1.3575091e-11
ExecutionTime = 9.36 s  ClockTime = 10 s

forces output:
    forces(pressure, viscous)((0.001905648 -3.6117298e-06 3.2812814e-22) (0.00053249445 -4.150076e-07 8.6947334e-23))
    moment(pressure, viscous)((3.6117298e-08 1.905648e-05 1.07372e-13) (4.150076e-09 5.3249445e-06 -4.6838768e-11))

Time = 3.019

Courant Number mean: 0.0093077077 max: 0.062445522 velocity magnitude: 1.3141163
In manipulateMatrix: true bou: 123 int: 0
smoothSolver:  Solving for Ux, Initial residual = 3.0365473e-05, Final residual = 1.4233282e-08, No Iterations 2
smoothSolver:  Solving for Uy, Initial residual = 3.6702607e-05, Final residual = 2.2619522e-08, No Iterations 2
In manipulateMatrix: true bou: 123 int: 0
amgSolver:  Solving for p, Initial residual = 1.6821499e-05, Final residual = 2.1412907e-07, No Iterations 100
Overset time step continuity errors : max local = 4.3592714e-09, sum local = 1.2007728e-12, global = 2.1171946e-13, cumulative = 1.3786811e-11
In manipulateMatrix: true bou: 123 int: 0
amgSolver:  Solving for p, Initial residual = 3.2898215e-07, Final residual = 1.0708292e-07, No Iterations 100
Overset time step continuity errors : max local = 2.009111e-09, sum local = 6.0049125e-13, global = 4.2224004e-14, cumulative = 1.3829035e-11
In manipulateMatrix: true bou: 123 int: 0
amgSolver:  Solving for p, Initial residual = 1.0444631e-07, Final residual = 9.9757775e-08, No Iterations 7
Overset time step continuity errors : max local = 1.8592936e-09, sum local = 5.594138e-13, global = 2.9924229e-14, cumulative = 1.3858959e-11
In manipulateMatrix: true bou: 123 int: 0
amgSolver:  Solving for p, Initial residual = 9.9549755e-08, Final residual = 9.9549755e-08, No Iterations 0
Overset time step continuity errors : max local = 1.8578997e-09, sum local = 5.5824728e-13, global = 2.961441e-14, cumulative = 1.3888573e-11
ExecutionTime = 9.6 s  ClockTime = 10 s

forces output:
    forces(pressure, viscous)((0.0019056325 -3.6112262e-06 3.2811864e-22) (0.00053249091 -4.1505262e-07 8.6947028e-23))
    moment(pressure, viscous)((3.6112262e-08 1.9056325e-05 1.0738451e-13) (4.1505262e-09 5.3249091e-06 -4.9868323e-11))

Time = 3.0195

Courant Number mean: 0.0093077235 max: 0.062445288 velocity magnitude: 1.3141137
In manipulateMatrix: true bou: 123 int: 0
smoothSolver:  Solving for Ux, Initial residual = 3.0356799e-05, Final residual = 1.4229013e-08, No Iterations 2
smoothSolver:  Solving for Uy, Initial residual = 3.6699147e-05, Final residual = 2.2617515e-08, No Iterations 2
In manipulateMatrix: true bou: 123 int: 0
amgSolver:  Solving for p, Initial residual = 1.6823275e-05, Final residual = 2.1457205e-07, No Iterations 100
Overset time step continuity errors : max local = 4.3666542e-09, sum local = 1.2032629e-12, global = 2.1210212e-13, cumulative = 1.4100675e-11
In manipulateMatrix: true bou: 123 int: 0
amgSolver:  Solving for p, Initial residual = 3.2932049e-07, Final residual = 1.0731474e-07, No Iterations 100
Overset time step continuity errors : max local = 2.0131374e-09, sum local = 6.0179429e-13, global = 4.2206367e-14, cumulative = 1.4142882e-11
In manipulateMatrix: true bou: 123 int: 0
amgSolver:  Solving for p, Initial residual = 1.0467138e-07, Final residual = 9.997401e-08, No Iterations 7
Overset time step continuity errors : max local = 1.8630047e-09, sum local = 5.6062916e-13, global = 2.9880519e-14, cumulative = 1.4172762e-11
In manipulateMatrix: true bou: 123 int: 0
amgSolver:  Solving for p, Initial residual = 9.9765543e-08, Final residual = 9.9765543e-08, No Iterations 0
Overset time step continuity errors : max local = 1.8616101e-09, sum local = 5.5946015e-13, global = 2.9570051e-14, cumulative = 1.4202332e-11
ExecutionTime = 9.84 s  ClockTime = 10 s

forces output:
    forces(pressure, viscous)((0.001905617 -3.6107186e-06 3.2810915e-22) (0.00053248738 -4.150973e-07 8.6946721e-23))
    moment(pressure, viscous)((3.6107186e-08 1.905617e-05 1.0739701e-13) (4.150973e-09 5.3248738e-06 -5.2905881e-11))

Time = 3.02

Courant Number mean: 0.0093077393 max: 0.062445053 velocity magnitude: 1.314111
In manipulateMatrix: true bou: 123 int: 0
smoothSolver:  Solving for Ux, Initial residual = 3.0348127e-05, Final residual = 1.4224745e-08, No Iterations 2
smoothSolver:  Solving for Uy, Initial residual = 3.6695687e-05, Final residual = 2.2615506e-08, No Iterations 2
In manipulateMatrix: true bou: 123 int: 0
amgSolver:  Solving for p, Initial residual = 1.6823646e-05, Final residual = 2.1456897e-07, No Iterations 100
Overset time step continuity errors : max local = 4.3657393e-09, sum local = 1.2032516e-12, global = 2.1164048e-13, cumulative = 1.4413973e-11
In manipulateMatrix: true bou: 123 int: 0
amgSolver:  Solving for p, Initial residual = 3.2927804e-07, Final residual = 1.0731654e-07, No Iterations 100
Overset time step continuity errors : max local = 2.0122931e-09, sum local = 6.0180729e-13, global = 4.178505e-14, cumulative = 1.4455758e-11
In manipulateMatrix: true bou: 123 int: 0
amgSolver:  Solving for p, Initial residual = 1.0467307e-07, Final residual = 9.9976697e-08, No Iterations 7
Overset time step continuity errors : max local = 1.8621923e-09, sum local = 5.6064699e-13, global = 2.9462791e-14, cumulative = 1.4485221e-11
In manipulateMatrix: true bou: 123 int: 0
amgSolver:  Solving for p, Initial residual = 9.9768325e-08, Final residual = 9.9768325e-08, No Iterations 0
Overset time step continuity errors : max local = 1.8607942e-09, sum local = 5.594785e-13, global = 2.9152406e-14, cumulative = 1.4514373e-11
ExecutionTime = 10.07 s  ClockTime = 10 s

forces output:
    forces(pressure, viscous)((0.0019056016 -3.6102059e-06 3.2809967e-22) (0.00053248384 -4.1514165e-07 8.6946415e-23))
    moment(pressure, viscous)((3.6102059e-08 1.9056016e-05 1.0740953e-13) (4.1514165e-09 5.3248384e-06 -5.5951429e-11))

Time = 3.0205

Courant Number mean: 0.0093077551 max: 0.062444819 velocity magnitude: 1.3141083
In manipulateMatrix: true bou: 123 int: 0
smoothSolver:  Solving for Ux, Initial residual = 3.0339457e-05, Final residual = 1.422048e-08, No Iterations 2
smoothSolver:  Solving for Uy, Initial residual = 3.6692235e-05, Final residual = 2.2613497e-08, No Iterations 2
In manipulateMatrix: true bou: 123 int: 0
amgSolver:  Solving for p, Initial residual = 1.6821734e-05, Final residual = 2.1448167e-07, No Iterations 100
Overset time step continuity errors : max local = 4.3631456e-09, sum local = 1.202768e-12, global = 2.109631e-13, cumulative = 1.4725336e-11
In manipulateMatrix: true bou: 123 int: 0
amgSolver:  Solving for p, Initial residual = 3.2916443e-07, Final residual = 1.0727392e-07, No Iterations 100
Overset time step continuity errors : max local = 2.010395e-09, sum local = 6.0157129e-13, global = 4.1229498e-14, cumulative = 1.4766566e-11
In manipulateMatrix: true bou: 123 int: 0
amgSolver:  Solving for p, Initial residual = 1.0463171e-07, Final residual = 9.9938289e-08, No Iterations 7
Overset time step continuity errors : max local = 1.8603978e-09, sum local = 5.6043439e-13, global = 2.8916675e-14, cumulative = 1.4795482e-11
In manipulateMatrix: true bou: 123 int: 0
amgSolver:  Solving for p, Initial residual = 9.973012e-08, Final residual = 9.973012e-08, No Iterations 0
Overset time step continuity errors : max local = 1.8590018e-09, sum local = 5.5926701e-13, global = 2.860654e-14, cumulative = 1.4824089e-11
ExecutionTime = 10.33 s  ClockTime = 11 s

forces output:
    forces(pressure, viscous)((0.0019055861 -3.6096878e-06 3.280902e-22) (0.00053248031 -4.1518566e-07 8.6946108e-23))
    moment(pressure, viscous)((3.6096878e-08 1.9055861e-05 1.0742206e-13) (4.1518566e-09 5.3248031e-06 -5.9004954e-11))

Time = 3.021

Courant Number mean: 0.009307771 max: 0.062444584 velocity magnitude: 1.3141057
In manipulateMatrix: true bou: 123 int: 0
smoothSolver:  Solving for Ux, Initial residual = 3.0330789e-05, Final residual = 1.4216217e-08, No Iterations 2
smoothSolver:  Solving for Uy, Initial residual = 3.6688779e-05, Final residual = 2.2611492e-08, No Iterations 2
In manipulateMatrix: true bou: 123 int: 0
amgSolver:  Solving for p, Initial residual = 1.6792609e-05, Final residual = 2.1440403e-07, No Iterations 100
Overset time step continuity errors : max local = 4.3608262e-09, sum local = 1.2023385e-12, global = 2.1036878e-13, cumulative = 1.5034458e-11
In manipulateMatrix: true bou: 123 int: 0
amgSolver:  Solving for p, Initial residual = 3.2905192e-07, Final residual = 1.0723602e-07, No Iterations 100
Overset time step continuity errors : max local = 2.0087026e-09, sum local = 6.0136175e-13, global = 4.074596e-14, cumulative = 1.5075204e-11
In manipulateMatrix: true bou: 123 int: 0
amgSolver:  Solving for p, Initial residual = 1.0459481e-07, Final residual = 9.9904064e-08, No Iterations 7
Overset time step continuity errors : max local = 1.8587993e-09, sum local = 5.6024528e-13, global = 2.8441704e-14, cumulative = 1.5103645e-11
In manipulateMatrix: true bou: 123 int: 0
amgSolver:  Solving for p, Initial residual = 9.9696092e-08, Final residual = 9.9696092e-08, No Iterations 0
Overset time step continuity errors : max local = 1.8574019e-09, sum local = 5.5907898e-13, global = 2.8131739e-14, cumulative = 1.5131777e-11
ExecutionTime = 10.58 s  ClockTime = 11 s

forces output:
    forces(pressure, viscous)((0.0019055706 -3.6091596e-06 3.2808074e-22) (0.00053247678 -4.1522932e-07 8.6945801e-23))
    moment(pressure, viscous)((3.6091596e-08 1.9055706e-05 1.0743467e-13) (4.1522932e-09 5.3247678e-06 -6.2066443e-11))

Time = 3.0215

Courant Number mean: 0.0093077868 max: 0.06244435 velocity magnitude: 1.314103
In manipulateMatrix: true bou: 123 int: 0
smoothSolver:  Solving for Ux, Initial residual = 3.0322123e-05, Final residual = 1.4211956e-08, No Iterations 2
smoothSolver:  Solving for Uy, Initial residual = 3.6685323e-05, Final residual = 2.2609485e-08, No Iterations 2
In manipulateMatrix: true bou: 123 int: 0
amgSolver:  Solving for p, Initial residual = 1.6782398e-05, Final residual = 2.1460841e-07, No Iterations 100
Overset time step continuity errors : max local = 4.3615493e-09, sum local = 1.2034907e-12, global = 2.0906538e-13, cumulative = 1.5340842e-11
In manipulateMatrix: true bou: 123 int: 0
amgSolver:  Solving for p, Initial residual = 3.2921454e-07, Final residual = 1.0735192e-07, No Iterations 100
[...]
amgSolver:  Solving for p, Initial residual = 1.0443288e-07, Final residual = 9.9941941e-08, No Iterations 7
Overset time step continuity errors : max local = 1.7363359e-09, sum local = 5.6073365e-13, global = -2.7815134e-14, cumulative = 3.3592442e-11
In manipulateMatrix: true bou: 123 int: 0
amgSolver:  Solving for p, Initial residual = 9.9747236e-08, Final residual = 9.9747236e-08, No Iterations 0
Overset time step continuity errors : max local = 1.7349668e-09, sum local = 5.5964122e-13, global = -2.8111086e-14, cumulative = 3.356433e-11
ExecutionTime = 33.14 s  ClockTime = 34 s

forces output:
    forces(pressure, viscous)((0.0019041756 -3.5391764e-06 3.272469e-22) (0.00053215743 -4.1767533e-07 8.6917504e-23))
    moment(pressure, viscous)((3.5391764e-08 1.9041756e-05 1.0862114e-13) (4.1767533e-09 5.3215743e-06 -3.7589528e-10))

Time = 3.0675

Courant Number mean: 0.0093092802 max: 0.062423067 velocity magnitude: 1.3138777
In manipulateMatrix: true bou: 123 int: 0
smoothSolver:  Solving for Ux, Initial residual = 2.9536673e-05, Final residual = 1.3826224e-08, No Iterations 2
smoothSolver:  Solving for Uy, Initial residual = 3.6363087e-05, Final residual = 2.2428947e-08, No Iterations 2
In manipulateMatrix: true bou: 123 int: 0
amgSolver:  Solving for p, Initial residual = 1.6342123e-05, Final residual = 2.1299589e-07, No Iterations 100
Overset time step continuity errors : max local = 4.2059567e-09, sum local = 1.1950362e-12, global = 1.4305563e-13, cumulative = 3.3707386e-11
In manipulateMatrix: true bou: 123 int: 0
amgSolver:  Solving for p, Initial residual = 3.2396066e-07, Final residual = 1.0714441e-07, No Iterations 100
Overset time step continuity errors : max local = 1.8755204e-09, sum local = 6.0114711e-13, global = -1.9785118e-14, cumulative = 3.3687601e-11
In manipulateMatrix: true bou: 123 int: 0
amgSolver:  Solving for p, Initial residual = 1.0450311e-07, Final residual = 9.9420008e-08, No Iterations 8
Overset time step continuity errors : max local = 1.7138449e-09, sum local = 5.5780833e-13, global = -3.2555676e-14, cumulative = 3.3655045e-11
In manipulateMatrix: true bou: 123 int: 0
amgSolver:  Solving for p, Initial residual = 9.9209497e-08, Final residual = 9.9209497e-08, No Iterations 0
Overset time step continuity errors : max local = 1.7123395e-09, sum local = 5.5662725e-13, global = -3.2877106e-14, cumulative = 3.3622168e-11
ExecutionTime = 33.38 s  ClockTime = 34 s

forces output:
    forces(pressure, viscous)((0.0019041608 -3.5381795e-06 3.2723822e-22) (0.00053215402 -4.1768369e-07 8.6917195e-23))
    moment(pressure, viscous)((3.5381795e-08 1.9041608e-05 1.0863403e-13) (4.1768369e-09 5.3215402e-06 -3.7963404e-10))

Time = 3.068

Courant Number mean: 0.0093092964 max: 0.062422838 velocity magnitude: 1.3138762
In manipulateMatrix: true bou: 123 int: 0
smoothSolver:  Solving for Ux, Initial residual = 2.9528265e-05, Final residual = 1.3822095e-08, No Iterations 2
smoothSolver:  Solving for Uy, Initial residual = 3.6359683e-05, Final residual = 2.2427055e-08, No Iterations 2
In manipulateMatrix: true bou: 123 int: 0
amgSolver:  Solving for p, Initial residual = 1.6356203e-05, Final residual = 2.1253231e-07, No Iterations 100
Overset time step continuity errors : max local = 4.191048e-09, sum local = 1.1924417e-12, global = 1.3929681e-13, cumulative = 3.3761465e-11
In manipulateMatrix: true bou: 123 int: 0
amgSolver:  Solving for p, Initial residual = 3.2354924e-07, Final residual = 1.0694613e-07, No Iterations 100
Overset time step continuity errors : max local = 1.8650216e-09, sum local = 6.0003793e-13, global = -2.2798669e-14, cumulative = 3.3738666e-11
In manipulateMatrix: true bou: 123 int: 0
amgSolver:  Solving for p, Initial residual = 1.0431117e-07, Final residual = 9.9847074e-08, No Iterations 7
Overset time step continuity errors : max local = 1.7189339e-09, sum local = 5.6020753e-13, global = -3.4460974e-14, cumulative = 3.3704205e-11
In manipulateMatrix: true bou: 123 int: 0
amgSolver:  Solving for p, Initial residual = 9.9653438e-08, Final residual = 9.9653438e-08, No Iterations 0
Overset time step continuity errors : max local = 1.7175716e-09, sum local = 5.5912109e-13, global = -3.4754646e-14, cumulative = 3.3669451e-11
ExecutionTime = 33.63 s  ClockTime = 34 s

forces output:
    forces(pressure, viscous)((0.0019041459 -3.5371766e-06 3.2722954e-22) (0.00053215061 -4.1769165e-07 8.6916887e-23))
    moment(pressure, viscous)((3.5371766e-08 1.9041459e-05 1.0864692e-13) (4.1769165e-09 5.3215061e-06 -3.8337933e-10))

Time = 3.0685

Courant Number mean: 0.0093093126 max: 0.06242261 velocity magnitude: 1.3138746
In manipulateMatrix: true bou: 123 int: 0
smoothSolver:  Solving for Ux, Initial residual = 2.9519861e-05, Final residual = 1.3817968e-08, No Iterations 2
smoothSolver:  Solving for Uy, Initial residual = 3.6356277e-05, Final residual = 2.2425165e-08, No Iterations 2
In manipulateMatrix: true bou: 123 int: 0
amgSolver:  Solving for p, Initial residual = 1.6369889e-05, Final residual = 2.1305057e-07, No Iterations 100
Overset time step continuity errors : max local = 4.1968803e-09, sum local = 1.1953561e-12, global = 1.3840975e-13, cumulative = 3.380786e-11
In manipulateMatrix: true bou: 123 int: 0
amgSolver:  Solving for p, Initial residual = 3.2397028e-07, Final residual = 1.0723616e-07, No Iterations 100
Overset time step continuity errors : max local = 1.8672531e-09, sum local = 6.0166848e-13, global = -2.4020813e-14, cumulative = 3.378384e-11
In manipulateMatrix: true bou: 123 int: 0
amgSolver:  Solving for p, Initial residual = 1.0459369e-07, Final residual = 9.9521617e-08, No Iterations 8
Overset time step continuity errors : max local = 1.7057202e-09, sum local = 5.5838456e-13, global = -3.67526e-14, cumulative = 3.3747087e-11
In manipulateMatrix: true bou: 123 int: 0
amgSolver:  Solving for p, Initial residual = 9.9311614e-08, Final residual = 9.9311614e-08, No Iterations 0
Overset time step continuity errors : max local = 1.7042185e-09, sum local = 5.5720629e-13, global = -3.7073052e-14, cumulative = 3.3710014e-11
ExecutionTime = 33.87 s  ClockTime = 34 s

forces output:
    forces(pressure, viscous)((0.001904131 -3.53617e-06 3.2722087e-22) (0.0005321472 -4.1769919e-07 8.6916578e-23))
    moment(pressure, viscous)((3.53617e-08 1.904131e-05 1.0865977e-13) (4.1769919e-09 5.321472e-06 -3.8713114e-10))

Time = 3.069

Courant Number mean: 0.0093093288 max: 0.062422382 velocity magnitude: 1.3138731
In manipulateMatrix: true bou: 123 int: 0
smoothSolver:  Solving for Ux, Initial residual = 2.9511461e-05, Final residual = 1.3813842e-08, No Iterations 2
smoothSolver:  Solving for Uy, Initial residual = 3.6352879e-05, Final residual = 2.2423279e-08, No Iterations 2
In manipulateMatrix: true bou: 123 int: 0
amgSolver:  Solving for p, Initial residual = 1.6381923e-05, Final residual = 2.1262634e-07, No Iterations 100
Overset time step continuity errors : max local = 4.1876559e-09, sum local = 1.1929824e-12, global = 1.3698763e-13, cumulative = 3.3847002e-11
In manipulateMatrix: true bou: 123 int: 0
amgSolver:  Solving for p, Initial residual = 3.2356839e-07, Final residual = 1.070286e-07, No Iterations 100
Overset time step continuity errors : max local = 1.8614217e-09, sum local = 6.0050722e-13, global = -2.497224e-14, cumulative = 3.3822029e-11
In manipulateMatrix: true bou: 123 int: 0
amgSolver:  Solving for p, Initial residual = 1.0439185e-07, Final residual = 9.9932107e-08, No Iterations 7
Overset time step continuity errors : max local = 1.7153506e-09, sum local = 5.6069078e-13, global = -3.6620919e-14, cumulative = 3.3785408e-11
In manipulateMatrix: true bou: 123 int: 0
amgSolver:  Solving for p, Initial residual = 9.9738598e-08, Final residual = 9.9738598e-08, No Iterations 0
Overset time step continuity errors : max local = 1.7139866e-09, sum local = 5.5960505e-13, global = -3.6914283e-14, cumulative = 3.3748494e-11
ExecutionTime = 34.12 s  ClockTime = 34 s

forces output:
    forces(pressure, viscous)((0.0019041161 -3.5351573e-06 3.272122e-22) (0.0005321438 -4.1770631e-07 8.691627e-23))
    moment(pressure, viscous)((3.5351573e-08 1.9041161e-05 1.0867263e-13) (4.1770631e-09 5.321438e-06 -3.9088945e-10))

Time = 3.0695

Courant Number mean: 0.009309345 max: 0.062422154 velocity magnitude: 1.3138716
In manipulateMatrix: true bou: 123 int: 0
smoothSolver:  Solving for Ux, Initial residual = 2.9503063e-05, Final residual = 1.3809718e-08, No Iterations 2
smoothSolver:  Solving for Uy, Initial residual = 3.6349475e-05, Final residual = 2.2421393e-08, No Iterations 2
In manipulateMatrix: true bou: 123 int: 0
amgSolver:  Solving for p, Initial residual = 1.6393806e-05, Final residual = 2.130416e-07, No Iterations 100
Overset time step continuity errors : max local = 4.1955959e-09, sum local = 1.1953189e-12, global = 1.3777247e-13, cumulative = 3.3886267e-11
In manipulateMatrix: true bou: 123 int: 0
amgSolver:  Solving for p, Initial residual = 3.2388378e-07, Final residual = 1.0724149e-07, No Iterations 100
Overset time step continuity errors : max local = 1.8660476e-09, sum local = 6.0170499e-13, global = -2.4611469e-14, cumulative = 3.3861655e-11
In manipulateMatrix: true bou: 123 int: 0
amgSolver:  Solving for p, Initial residual = 1.0459895e-07, Final residual = 9.9529049e-08, No Iterations 8
Overset time step continuity errors : max local = 1.7045351e-09, sum local = 5.5843236e-13, global = -3.7337937e-14, cumulative = 3.3824317e-11
In manipulateMatrix: true bou: 123 int: 0
amgSolver:  Solving for p, Initial residual = 9.9319104e-08, Final residual = 9.9319104e-08, No Iterations 0
Overset time step continuity errors : max local = 1.7030353e-09, sum local = 5.5725443e-13, global = -3.7658263e-14, cumulative = 3.3786659e-11
ExecutionTime = 34.36 s  ClockTime = 35 s

forces output:
    forces(pressure, viscous)((0.0019041013 -3.5341407e-06 3.2720355e-22) (0.00053214039 -4.1771301e-07 8.6915961e-23))
    moment(pressure, viscous)((3.5341407e-08 1.9041013e-05 1.0868547e-13) (4.1771301e-09 5.3214039e-06 -3.9465425e-10))

Time = 3.07

Courant Number mean: 0.0093093612 max: 0.062421926 velocity magnitude: 1.31387
In manipulateMatrix: true bou: 123 int: 0
smoothSolver:  Solving for Ux, Initial residual = 2.9494666e-05, Final residual = 1.3805593e-08, No Iterations 2
smoothSolver:  Solving for Uy, Initial residual = 3.6346073e-05, Final residual = 2.2419512e-08, No Iterations 2
In manipulateMatrix: true bou: 123 int: 0
amgSolver:  Solving for p, Initial residual = 1.6404658e-05, Final residual = 2.1258109e-07, No Iterations 100
Overset time step continuity errors : max local = 4.188151e-09, sum local = 1.1927416e-12, global = 1.373996e-13, cumulative = 3.3924059e-11
In manipulateMatrix: true bou: 123 int: 0
amgSolver:  Solving for p, Initial residual = 3.2344361e-07, Final residual = 1.0700084e-07, No Iterations 100
Overset time step continuity errors : max local = 1.8619336e-09, sum local = 6.0035807e-13, global = -2.4594755e-14, cumulative = 3.3899464e-11
In manipulateMatrix: true bou: 123 int: 0
amgSolver:  Solving for p, Initial residual = 1.0436473e-07, Final residual = 9.9904866e-08, No Iterations 7
Overset time step continuity errors : max local = 1.7158642e-09, sum local = 5.6054404e-13, global = -3.6245699e-14, cumulative = 3.3863218e-11
In manipulateMatrix: true bou: 123 int: 0
amgSolver:  Solving for p, Initial residual = 9.9711365e-08, Final residual = 9.9711365e-08, No Iterations 0
Overset time step continuity errors : max local = 1.7145003e-09, sum local = 5.5945836e-13, global = -3.6539109e-14, cumulative = 3.3826679e-11
ExecutionTime = 34.6 s  ClockTime = 35 s

forces output:
    forces(pressure, viscous)((0.0019040864 -3.5331179e-06 3.2719492e-22) (0.00053213699 -4.177193e-07 8.6915652e-23))
    moment(pressure, viscous)((3.5331179e-08 1.9040864e-05 1.0869831e-13) (4.177193e-09 5.3213699e-06 -3.9842551e-10))

Time = 3.0705

Courant Number mean: 0.0093093774 max: 0.062421698 velocity magnitude: 1.3138685
In manipulateMatrix: true bou: 123 int: 0
smoothSolver:  Solving for Ux, Initial residual = 2.9486269e-05, Final residual = 1.3801468e-08, No Iterations 2
smoothSolver:  Solving for Uy, Initial residual = 3.6342664e-05, Final residual = 2.2417632e-08, No Iterations 2
In manipulateMatrix: true bou: 123 int: 0
amgSolver:  Solving for p, Initial residual = 1.6416211e-05, Final residual = 2.1290243e-07, No Iterations 100
Overset time step continuity errors : max local = 4.1956168e-09, sum local = 1.1945511e-12, global = 1.3865807e-13, cumulative = 3.3965337e-11
In manipulateMatrix: true bou: 123 int: 0
amgSolver:  Solving for p, Initial residual = 3.2366674e-07, Final residual = 1.0715598e-07, No Iterations 100
Overset time step continuity errors : max local = 1.8667058e-09, sum local = 6.012318e-13, global = -2.3727946e-14, cumulative = 3.3941609e-11
In manipulateMatrix: true bou: 123 int: 0
amgSolver:  Solving for p, Initial residual = 1.0451535e-07, Final residual = 9.9446079e-08, No Iterations 8
Overset time step continuity errors : max local = 1.7052512e-09, sum local = 5.5797292e-13, global = -3.6455552e-14, cumulative = 3.3905154e-11
In manipulateMatrix: true bou: 123 int: 0
amgSolver:  Solving for p, Initial residual = 9.9236202e-08, Final residual = 9.9236202e-08, No Iterations 0
Overset time step continuity errors : max local = 1.7037466e-09, sum local = 5.5679536e-13, global = -3.6775902e-14, cumulative = 3.3868378e-11
ExecutionTime = 34.89 s  ClockTime = 35 s

forces output:
    forces(pressure, viscous)((0.0019040716 -3.5320912e-06 3.2718629e-22) (0.00053213358 -4.1772518e-07 8.6915344e-23))
    moment(pressure, viscous)((3.5320912e-08 1.9040716e-05 1.0871112e-13) (4.1772518e-09 5.3213358e-06 -4.0220322e-10))

Time = 3.071

Courant Number mean: 0.0093093936 max: 0.06242147 velocity magnitude: 1.313867
In manipulateMatrix: true bou: 123 int: 0
smoothSolver:  Solving for Ux, Initial residual = 2.9477875e-05, Final residual = 1.3797345e-08, No Iterations 2
smoothSolver:  Solving for Uy, Initial residual = 3.6339253e-05, Final residual = 2.2415751e-08, No Iterations 2
In manipulateMatrix: true bou: 123 int: 0
amgSolver:  Solving for p, Initial residual = 1.6426124e-05, Final residual = 2.1247009e-07, No Iterations 100
Overset time step continuity errors : max local = 4.1886427e-09, sum local = 1.1921318e-12, global = 1.3827677e-13, cumulative = 3.4006654e-11
In manipulateMatrix: true bou: 123 int: 0
amgSolver:  Solving for p, Initial residual = 3.2325458e-07, Final residual = 1.0693121e-07, No Iterations 100
Overset time step continuity errors : max local = 1.8628035e-09, sum local = 5.9997385e-13, global = -2.3745723e-14, cumulative = 3.3982909e-11
In manipulateMatrix: true bou: 123 int: 0
amgSolver:  Solving for p, Initial residual = 1.0429668e-07, Final residual = 9.9836758e-08, No Iterations 7
Overset time step continuity errors : max local = 1.7167682e-09, sum local = 5.6016803e-13, global = -3.5399368e-14, cumulative = 3.3947509e-11
In manipulateMatrix: true bou: 123 int: 0
amgSolver:  Solving for p, Initial residual = 9.9643288e-08, Final residual = 9.9643288e-08, No Iterations 0
Overset time step continuity errors : max local = 1.7154046e-09, sum local = 5.5908249e-13, global = -3.5692845e-14, cumulative = 3.3911816e-11
ExecutionTime = 35.15 s  ClockTime = 36 s

forces output:
    forces(pressure, viscous)((0.0019040567 -3.5310583e-06 3.2717768e-22) (0.00053213018 -4.1773063e-07 8.6915035e-23))
    moment(pressure, viscous)((3.5310583e-08 1.9040567e-05 1.0872394e-13) (4.1773063e-09 5.3213018e-06 -4.0598737e-10))

Time = 3.0715

Courant Number mean: 0.0093094098 max: 0.062421242 velocity magnitude: 1.3138654
In manipulateMatrix: true bou: 123 int: 0
smoothSolver:  Solving for Ux, Initial residual = 2.9469479e-05, Final residual = 1.3793224e-08, No Iterations 2
smoothSolver:  Solving for Uy, Initial residual = 3.6335835e-05, Final residual = 2.2413871e-08, No Iterations 2
In manipulateMatrix: true bou: 123 int: 0
amgSolver:  Solving for p, Initial residual = 1.6435822e-05, Final residual = 2.1281437e-07, No Iterations 100
Overset time step continuity errors : max local = 4.1952597e-09, sum local = 1.19407e-12, global = 1.389991e-13, cumulative = 3.4050816e-11
In manipulateMatrix: true bou: 123 int: 0
amgSolver:  Solving for p, Initial residual = 3.2350161e-07, Final residual = 1.0710562e-07, No Iterations 100
Overset time step continuity errors : max local = 1.8667359e-09, sum local = 6.0095581e-13, global = -2.3376748e-14, cumulative = 3.4027439e-11
In manipulateMatrix: true bou: 123 int: 0
amgSolver:  Solving for p, Initial residual = 1.0446614e-07, Final residual = 9.9998293e-08, No Iterations 7
Overset time step continuity errors : max local = 1.7204402e-09, sum local = 5.6107746e-13, global = -3.5054035e-14, cumulative = 3.3992385e-11
In manipulateMatrix: true bou: 123 int: 0
amgSolver:  Solving for p, Initial residual = 9.9804459e-08, Final residual = 9.9804459e-08, No Iterations 0
Overset time step continuity errors : max local = 1.7190742e-09, sum local = 5.5998988e-13, global = -3.5348121e-14, cumulative = 3.3957037e-11
ExecutionTime = 35.4 s  ClockTime = 36 s

forces output:
    forces(pressure, viscous)((0.0019040419 -3.5300212e-06 3.2716908e-22) (0.00053212678 -4.1773567e-07 8.6914726e-23))
    moment(pressure, viscous)((3.5300212e-08 1.9040419e-05 1.0873673e-13) (4.1773567e-09 5.3212678e-06 -4.0977793e-10))

Time = 3.072

Courant Number mean: 0.009309426 max: 0.062421014 velocity magnitude: 1.3138639
In manipulateMatrix: true bou: 123 int: 0
smoothSolver:  Solving for Ux, Initial residual = 2.9461085e-05, Final residual = 1.3789105e-08, No Iterations 2
smoothSolver:  Solving for Uy, Initial residual = 3.6332415e-05, Final residual = 2.2411992e-08, No Iterations 2
In manipulateMatrix: true bou: 123 int: 0
amgSolver:  Solving for p, Initial residual = 1.6418933e-05, Final residual = 2.1278353e-07, No Iterations 100
Overset time step continuity errors : max local = 4.1939675e-09, sum local = 1.1939036e-12, global = 1.3855737e-13, cumulative = 3.4095594e-11
In manipulateMatrix: true bou: 123 int: 0
amgSolver:  Solving for p, Initial residual = 3.2344012e-07, Final residual = 1.0709666e-07, No Iterations 100
Overset time step continuity errors : max local = 1.8657306e-09, sum local = 6.0090882e-13, global = -2.3757957e-14, cumulative = 3.4071836e-11
In manipulateMatrix: true bou: 123 int: 0
amgSolver:  Solving for p, Initial residual = 1.044575e-07, Final residual = 9.9991376e-08, No Iterations 7
Overset time step continuity errors : max local = 1.7194679e-09, sum local = 5.6104173e-13, global = -3.5430401e-14, cumulative = 3.4036406e-11
In manipulateMatrix: true bou: 123 int: 0
amgSolver:  Solving for p, Initial residual = 9.979761e-08, Final residual = 9.979761e-08, No Iterations 0
Overset time step continuity errors : max local = 1.7181037e-09, sum local = 5.5995455e-13, global = -3.5724403e-14, cumulative = 3.4000681e-11
ExecutionTime = 35.64 s  ClockTime = 36 s

forces output:
    forces(pressure, viscous)((0.001904027 -3.5289799e-06 3.2716049e-22) (0.00053212338 -4.1774029e-07 8.6914417e-23))
    moment(pressure, viscous)((3.5289799e-08 1.904027e-05 1.0874945e-13) (4.1774029e-09 5.3212338e-06 -4.1357489e-10))

Time = 3.0725

Courant Number mean: 0.0093094423 max: 0.062420786 velocity magnitude: 1.3138623
In manipulateMatrix: true bou: 123 int: 0
smoothSolver:  Solving for Ux, Initial residual = 2.9452694e-05, Final residual = 1.3784988e-08, No Iterations 2
smoothSolver:  Solving for Uy, Initial residual = 3.6329004e-05, Final residual = 2.2410118e-08, No Iterations 2
In manipulateMatrix: true bou: 123 int: 0
amgSolver:  Solving for p, Initial residual = 1.6400207e-05, Final residual = 2.1275941e-07, No Iterations 100
Overset time step continuity errors : max local = 4.1914333e-09, sum local = 1.1937748e-12, global = 1.3747389e-13, cumulative = 3.4138155e-11
In manipulateMatrix: true bou: 123 int: 0
