/*---------------------------------------------------------------------------*\
| =========                 |                                                 |
| \\      /  F ield         | foam-extend: Open Source CFD                    |
|  \\    /   O peration     | Version:     4.1                                |
|   \\  /    A nd           | Web:         http://www.foam-extend.org         |
|    \\/     M anipulation  | For copyright notice see file Copyright         |
\*---------------------------------------------------------------------------*/
Build  : 4.1-76ec96ae2dcb
Exec   : icoOversetFoam
Date   : Apr 02 2020
Time   : 13:44:04
Host   : "aoba"
PID    : 27159
CtrlDict : "/home/mimi/foam/mimi-4.1/run/aerofoil-gmsh-overset-rotate/system/controlDict"
Case   : /home/mimi/foam/mimi-4.1/run/aerofoil-gmsh-overset-rotate
nProcs : 1
sigFpe : Enabling floating point exception trapping (FOAM_SIGFPE).
allowSystemOperations : Disallowing user-supplied system call operations

// * * * * * * * * * * * * * * * * * * * * * * * * * * * * * * * * * * * * * //
Create time

Create mesh for time = 0


PISO: Operating solver in PISO mode

Creating oversetMesh
Selecting overset fringe type overlap
Selecting overset fringe type faceCells
Found 1 active overset interpolation schemes.

Selecting overset interpolation type injection
Updating iteration for overset region: volume
Region internal: 204 triangles in hole cutting
Region volume: 0 triangles in hole cutting
Overlap fringe iteration: 1 for region: volume
Cumulative suitable pairs: 36, total number of pairs: 36 (100%)
Converted 0 acceptors to holes.
Finished assembling overlap fringe.
Updating iteration for overset region: internal
Number of acceptor cells: 192
Number of donor cells: 192
Number of hole cells: 35
Checking donor-acceptor assembly
Reading transportProperties

Reading field p

Reading field U

Reading/calculating face flux field phi

Reading field rAU if present


Starting time loop

Time = 0.01

Courant Number mean: 17.457406 max: 1174.6179 velocity magnitude: 259.94021
In manipulateMatrix: true bou: 267 int: 0
smoothSolver:  Solving for Ux, Initial residual = 0.78727515, Final residual = 3.7584272e-08, No Iterations 91
smoothSolver:  Solving for Uy, Initial residual = 0.77302855, Final residual = 3.6402024e-08, No Iterations 93
In manipulateMatrix: true bou: 267 int: 0
amgSolver:  Solving for p, Initial residual = 0.99659258, Final residual = 4.6373211e-08, No Iterations 33
Overset time step continuity errors : max local = 3.9171688e-05, sum local = 3.7971368e-09, global = 1.5767531e-09, cumulative = 1.5767531e-09
In manipulateMatrix: true bou: 267 int: 0
amgSolver:  Solving for p, Initial residual = 0.16874673, Final residual = 9.6851346e-08, No Iterations 22
Overset time step continuity errors : max local = 0.0020801767, sum local = 1.7312976e-07, global = 6.1698662e-08, cumulative = 6.3275415e-08
In manipulateMatrix: true bou: 267 int: 0
amgSolver:  Solving for p, Initial residual = 0.20470452, Final residual = 4.1603538e-08, No Iterations 24
Overset time step continuity errors : max local = 0.00037838168, sum local = 3.8923464e-08, global = 1.349997e-08, cumulative = 7.6775385e-08
In manipulateMatrix: true bou: 267 int: 0
amgSolver:  Solving for p, Initial residual = 0.19747177, Final residual = 9.7156321e-08, No Iterations 22
Overset time step continuity errors : max local = 0.00090800424, sum local = 6.4702757e-08, global = 2.605696e-08, cumulative = 1.0283235e-07
ExecutionTime = 0.15 s  ClockTime = 2 s

forces output:
    forces(pressure, viscous)((-101.33541 -374.22462 -1.5442236e-16) (10.530021 -0.58096304 2.221873e-18))
    moment(pressure, viscous)((18.711231 -5.0667707 -383.04008) (0.029048152 0.52650104 0.18979841))

Time = 0.02

Courant Number mean: 17.449472 max: 722.68427 velocity magnitude: 201.7915
In manipulateMatrix: true bou: 267 int: 0
smoothSolver:  Solving for Ux, Initial residual = 0.54474697, Final residual = 8.2129344e-08, No Iterations 91
smoothSolver:  Solving for Uy, Initial residual = 0.49775991, Final residual = 5.6906669e-08, No Iterations 94
In manipulateMatrix: true bou: 267 int: 0
amgSolver:  Solving for p, Initial residual = 0.55515671, Final residual = 7.9053564e-08, No Iterations 29
Overset time step continuity errors : max local = 0.00012674949, sum local = 7.0207912e-08, global = -4.2622079e-08, cumulative = 6.0210266e-08
In manipulateMatrix: true bou: 267 int: 0
amgSolver:  Solving for p, Initial residual = 0.081745062, Final residual = 7.8682777e-08, No Iterations 19
Overset time step continuity errors : max local = 0.0054664474, sum local = 4.1338195e-07, global = -2.1032161e-07, cumulative = -1.5011135e-07
In manipulateMatrix: true bou: 267 int: 0
amgSolver:  Solving for p, Initial residual = 0.24774896, Final residual = 8.4951706e-08, No Iterations 23
Overset time step continuity errors : max local = 0.00050550537, sum local = 7.0513462e-08, global = -3.8155825e-08, cumulative = -1.8826717e-07
In manipulateMatrix: true bou: 267 int: 0
amgSolver:  Solving for p, Initial residual = 0.28481263, Final residual = 5.9061365e-08, No Iterations 25
Overset time step continuity errors : max local = 0.00015404525, sum local = 2.834296e-08, global = -2.0449569e-08, cumulative = -2.0871674e-07
ExecutionTime = 0.22 s  ClockTime = 2 s

forces output:
    forces(pressure, viscous)((76.922282 479.2152 8.7320634e-17) (7.7200907 -0.42325091 -3.0535953e-18))
    moment(pressure, viscous)((-23.96076 3.8461141 120.11465) (0.021162545 0.38600454 0.1269939))

Time = 0.03

Courant Number mean: 16.69644 max: 575.1421 velocity magnitude: 182.25154
In manipulateMatrix: true bou: 267 int: 0
smoothSolver:  Solving for Ux, Initial residual = 0.35292744, Final residual = 4.3397253e-08, No Iterations 87
smoothSolver:  Solving for Uy, Initial residual = 0.37168027, Final residual = 4.0184975e-08, No Iterations 87
In manipulateMatrix: true bou: 267 int: 0
amgSolver:  Solving for p, Initial residual = 0.64310032, Final residual = 9.0064133e-08, No Iterations 27
Overset time step continuity errors : max local = 0.00045067514, sum local = 5.7785851e-08, global = -1.5240621e-08, cumulative = -2.2395736e-07
In manipulateMatrix: true bou: 267 int: 0
amgSolver:  Solving for p, Initial residual = 0.19774044, Final residual = 8.6342395e-08, No Iterations 26
Overset time step continuity errors : max local = 0.0027613957, sum local = 1.5481232e-07, global = 7.1090157e-08, cumulative = -1.5286721e-07
In manipulateMatrix: true bou: 267 int: 0
amgSolver:  Solving for p, Initial residual = 0.22068128, Final residual = 6.8334532e-08, No Iterations 20
Overset time step continuity errors : max local = 0.0016756238, sum local = 5.9568314e-08, global = 1.1820278e-08, cumulative = -1.4104693e-07
In manipulateMatrix: true bou: 267 int: 0
amgSolver:  Solving for p, Initial residual = 0.32179544, Final residual = 3.9519063e-08, No Iterations 27
Overset time step continuity errors : max local = 0.00026815029, sum local = 1.7183942e-08, global = 7.5635315e-09, cumulative = -1.334834e-07
ExecutionTime = 0.3 s  ClockTime = 2 s

forces output:
    forces(pressure, viscous)((14.273965 115.38061 -5.2579805e-17) (6.3788484 0.3862795 -1.2211894e-18))
    moment(pressure, viscous)((-5.7690307 0.71369827 -119.10933) (-0.019313975 0.31894242 0.30107889))

Time = 0.04

Courant Number mean: 17.145168 max: 831.77534 velocity magnitude: 340.60006
In manipulateMatrix: true bou: 267 int: 0
smoothSolver:  Solving for Ux, Initial residual = 0.40550069, Final residual = 9.1457457e-08, No Iterations 110
smoothSolver:  Solving for Uy, Initial residual = 0.36792701, Final residual = 9.2248666e-08, No Iterations 120
In manipulateMatrix: true bou: 267 int: 0
amgSolver:  Solving for p, Initial residual = 0.70620389, Final residual = 6.0588063e-08, No Iterations 23
Overset time step continuity errors : max local = 0.00043808288, sum local = 4.3948138e-08, global = 1.3132092e-08, cumulative = -1.203513e-07
In manipulateMatrix: true bou: 267 int: 0
amgSolver:  Solving for p, Initial residual = 0.15799068, Final residual = 8.7846648e-08, No Iterations 23
Overset time step continuity errors : max local = 0.0025009018, sum local = 2.3530511e-07, global = 1.0569107e-07, cumulative = -1.4660232e-08
In manipulateMatrix: true bou: 267 int: 0
amgSolver:  Solving for p, Initial residual = 0.17588263, Final residual = 7.8640868e-08, No Iterations 23
Overset time step continuity errors : max local = 0.00024770495, sum local = 1.1089938e-07, global = -6.2143105e-08, cumulative = -7.6803337e-08
In manipulateMatrix: true bou: 267 int: 0
amgSolver:  Solving for p, Initial residual = 0.2726153, Final residual = 7.539426e-08, No Iterations 17
Overset time step continuity errors : max local = 0.0017714311, sum local = 3.9141486e-08, global = 2.5907361e-08, cumulative = -5.0895975e-08
ExecutionTime = 0.38 s  ClockTime = 2 s

forces output:
    forces(pressure, viscous)((55.279747 395.59197 4.2549067e-17) (6.2413964 -0.51983703 -4.3958008e-18))
    moment(pressure, viscous)((-19.779598 2.7639874 31.601201) (0.025991851 0.31206982 0.27507369))

Time = 0.05

Courant Number mean: 16.896409 max: 1009.3249 velocity magnitude: 252.3313
In manipulateMatrix: true bou: 267 int: 0
smoothSolver:  Solving for Ux, Initial residual = 0.30654604, Final residual = 9.0190739e-08, No Iterations 85
smoothSolver:  Solving for Uy, Initial residual = 0.29280686, Final residual = 9.5315703e-08, No Iterations 91
In manipulateMatrix: true bou: 267 int: 0
amgSolver:  Solving for p, Initial residual = 0.66975864, Final residual = 9.7044833e-08, No Iterations 25
Overset time step continuity errors : max local = 0.00015770955, sum local = 5.9034907e-08, global = -1.9891049e-08, cumulative = -7.0787024e-08
In manipulateMatrix: true bou: 267 int: 0
amgSolver:  Solving for p, Initial residual = 0.22482428, Final residual = 6.9173687e-08, No Iterations 24
Overset time step continuity errors : max local = 0.0044955428, sum local = 9.9007327e-08, global = 5.0145963e-08, cumulative = -2.0641062e-08
In manipulateMatrix: true bou: 267 int: 0
amgSolver:  Solving for p, Initial residual = 0.21090565, Final residual = 8.0569197e-08, No Iterations 22
Overset time step continuity errors : max local = 0.00058841813, sum local = 6.8594413e-08, global = 2.6495128e-08, cumulative = 5.8540662e-09
In manipulateMatrix: true bou: 267 int: 0
amgSolver:  Solving for p, Initial residual = 0.22484579, Final residual = 7.8249923e-08, No Iterations 21
Overset time step continuity errors : max local = 0.00012039917, sum local = 4.1357985e-08, global = -7.7933565e-09, cumulative = -1.9392903e-09
ExecutionTime = 0.44 s  ClockTime = 2 s

forces output:
    forces(pressure, viscous)((37.721066 400.59168 -3.0851174e-17) (5.6495221 0.76925385 -4.8987688e-18))
    moment(pressure, viscous)((-20.029584 1.8860533 51.623538) (-0.038462692 0.28247611 0.59543546))

Time = 0.06

Courant Number mean: 17.215113 max: 727.10877 velocity magnitude: 235.19186
In manipulateMatrix: true bou: 267 int: 0
smoothSolver:  Solving for Ux, Initial residual = 0.31151794, Final residual = 9.2375768e-08, No Iterations 107
smoothSolver:  Solving for Uy, Initial residual = 0.28944374, Final residual = 9.3451736e-08, No Iterations 112
In manipulateMatrix: true bou: 267 int: 0
amgSolver:  Solving for p, Initial residual = 0.66520752, Final residual = 7.6348485e-08, No Iterations 25
Overset time step continuity errors : max local = 0.00034353094, sum local = 5.5021034e-08, global = -2.3565434e-08, cumulative = -2.5504724e-08
In manipulateMatrix: true bou: 267 int: 0
amgSolver:  Solving for p, Initial residual = 0.10483744, Final residual = 7.4474994e-08, No Iterations 23
Overset time step continuity errors : max local = 0.0033717773, sum local = 2.4199838e-07, global = 1.0507194e-07, cumulative = 7.9567218e-08
In manipulateMatrix: true bou: 267 int: 0
amgSolver:  Solving for p, Initial residual = 0.166132, Final residual = 8.703291e-08, No Iterations 22
Overset time step continuity errors : max local = 0.00015671466, sum local = 8.055298e-08, global = -5.6487528e-08, cumulative = 2.307969e-08
In manipulateMatrix: true bou: 267 int: 0
amgSolver:  Solving for p, Initial residual = 0.17572636, Final residual = 6.429114e-08, No Iterations 19
Overset time step continuity errors : max local = 7.7147095e-05, sum local = 3.1725939e-08, global = -2.3108039e-08, cumulative = -2.8348772e-11
ExecutionTime = 0.52 s  ClockTime = 2 s

forces output:
    forces(pressure, viscous)((48.137333 397.44757 1.2687192e-17) (6.1614661 -0.59081654 -7.3563336e-18))
    moment(pressure, viscous)((-19.872378 2.4068666 27.484566) (0.029540827 0.3080733 0.011129876))

Time = 0.07

Courant Number mean: 16.833129 max: 691.47835 velocity magnitude: 195.63287
In manipulateMatrix: true bou: 267 int: 0
smoothSolver:  Solving for Ux, Initial residual = 0.21756253, Final residual = 9.3597123e-08, No Iterations 85
smoothSolver:  Solving for Uy, Initial residual = 0.23274982, Final residual = 8.7523315e-08, No Iterations 89
In manipulateMatrix: true bou: 267 int: 0
amgSolver:  Solving for p, Initial residual = 0.61911608, Final residual = 7.5941005e-08, No Iterations 24
Overset time step continuity errors : max local = 0.0017045526, sum local = 5.009759e-08, global = -1.9466349e-08, cumulative = -1.9494698e-08
In manipulateMatrix: true bou: 267 int: 0
amgSolver:  Solving for p, Initial residual = 0.16743039, Final residual = 6.0807617e-08, No Iterations 21
Overset time step continuity errors : max local = 0.0023711567, sum local = 9.3544904e-08, global = 3.6971081e-08, cumulative = 1.7476384e-08
In manipulateMatrix: true bou: 267 int: 0
amgSolver:  Solving for p, Initial residual = 0.1769599, Final residual = 6.1148446e-08, No Iterations 23
Overset time step continuity errors : max local = 0.0014452264, sum local = 4.2875408e-08, global = -1.1139978e-08, cumulative = 6.3364061e-09
In manipulateMatrix: true bou: 267 int: 0
amgSolver:  Solving for p, Initial residual = 0.20785923, Final residual = 2.0740948e-08, No Iterations 23
Overset time step continuity errors : max local = 0.00058420417, sum local = 7.3999579e-09, global = 3.7979193e-09, cumulative = 1.0134325e-08
ExecutionTime = 0.59 s  ClockTime = 2 s

forces output:
    forces(pressure, viscous)((57.952954 424.10118 1.3973468e-17) (5.262634 0.63108318 -9.3897318e-18))
    moment(pressure, viscous)((-21.205059 2.8976477 45.287875) (-0.031554159 0.2631317 0.62935063))

Time = 0.08

Courant Number mean: 16.871143 max: 744.31097 velocity magnitude: 207.62445
In manipulateMatrix: true bou: 267 int: 0
smoothSolver:  Solving for Ux, Initial residual = 0.14873122, Final residual = 8.6666439e-08, No Iterations 83
smoothSolver:  Solving for Uy, Initial residual = 0.15382641, Final residual = 9.994891e-08, No Iterations 87
In manipulateMatrix: true bou: 267 int: 0
amgSolver:  Solving for p, Initial residual = 0.58474157, Final residual = 7.8168115e-08, No Iterations 25
Overset time step continuity errors : max local = 0.00012240653, sum local = 3.5102721e-08, global = -1.0240052e-08, cumulative = -1.057262e-10
In manipulateMatrix: true bou: 267 int: 0
amgSolver:  Solving for p, Initial residual = 0.15194773, Final residual = 7.9469374e-08, No Iterations 23
Overset time step continuity errors : max local = 0.0023899024, sum local = 9.3003116e-08, global = 3.4975878e-08, cumulative = 3.4870152e-08
In manipulateMatrix: true bou: 267 int: 0
amgSolver:  Solving for p, Initial residual = 0.15344276, Final residual = 8.8099685e-08, No Iterations 20
Overset time step continuity errors : max local = 0.00019383704, sum local = 5.1495511e-08, global = -1.3257722e-08, cumulative = 2.161243e-08
In manipulateMatrix: true bou: 267 int: 0
amgSolver:  Solving for p, Initial residual = 0.15163368, Final residual = 8.1740235e-08, No Iterations 20
Overset time step continuity errors : max local = 0.0011665174, sum local = 3.0426305e-08, global = 2.1052104e-08, cumulative = 4.2664534e-08
ExecutionTime = 0.64 s  ClockTime = 2 s

forces output:
    forces(pressure, viscous)((60.601612 436.24084 2.0855043e-17) (6.4995646 -0.21604919 -6.9055689e-18))
    moment(pressure, viscous)((-21.812042 3.0300806 59.169695) (0.010802459 0.32497823 0.19907633))

Time = 0.09

Courant Number mean: 16.923363 max: 618.27986 velocity magnitude: 201.66332
In manipulateMatrix: true bou: 267 int: 0
smoothSolver:  Solving for Ux, Initial residual = 0.12956676, Final residual = 9.7458283e-08, No Iterations 88
smoothSolver:  Solving for Uy, Initial residual = 0.13767559, Final residual = 7.0428139e-08, No Iterations 91
In manipulateMatrix: true bou: 267 int: 0
amgSolver:  Solving for p, Initial residual = 0.50567537, Final residual = 6.6430876e-08, No Iterations 21
Overset time step continuity errors : max local = 0.00048500536, sum local = 3.0007047e-08, global = -1.1640161e-08, cumulative = 3.1024373e-08
In manipulateMatrix: true bou: 267 int: 0
amgSolver:  Solving for p, Initial residual = 0.13407358, Final residual = 5.714086e-08, No Iterations 21
Overset time step continuity errors : max local = 0.00057718559, sum local = 5.8243876e-08, global = 1.7715175e-08, cumulative = 4.8739548e-08
In manipulateMatrix: true bou: 267 int: 0
amgSolver:  Solving for p, Initial residual = 0.14530338, Final residual = 2.0250765e-08, No Iterations 20
Overset time step continuity errors : max local = 0.00025958448, sum local = 9.8324008e-09, global = -4.2094424e-09, cumulative = 4.4530106e-08
In manipulateMatrix: true bou: 267 int: 0
amgSolver:  Solving for p, Initial residual = 0.14041088, Final residual = 9.3961187e-08, No Iterations 20
Overset time step continuity errors : max local = 0.00080311255, sum local = 3.199989e-08, global = 5.9447605e-09, cumulative = 5.0474866e-08
ExecutionTime = 0.7 s  ClockTime = 2 s

forces output:
    forces(pressure, viscous)((58.511284 393.45379 1.9803371e-17) (5.6122207 0.2696925 -6.9863607e-18))
    moment(pressure, viscous)((-19.672689 2.9255642 31.466745) (-0.013484625 0.28061103 0.44530308))

Time = 0.1

Courant Number mean: 16.903713 max: 653.72446 velocity magnitude: 204.41414
In manipulateMatrix: true bou: 267 int: 0
smoothSolver:  Solving for Ux, Initial residual = 0.11887305, Final residual = 9.0302698e-08, No Iterations 84
smoothSolver:  Solving for Uy, Initial residual = 0.12755281, Final residual = 8.4494202e-08, No Iterations 92
In manipulateMatrix: true bou: 267 int: 0
amgSolver:  Solving for p, Initial residual = 0.54308142, Final residual = 4.4112585e-08, No Iterations 22
Overset time step continuity errors : max local = 9.570062e-05, sum local = 2.1692328e-08, global = -9.9666882e-09, cumulative = 4.0508178e-08
In manipulateMatrix: true bou: 267 int: 0
amgSolver:  Solving for p, Initial residual = 0.17787476, Final residual = 6.9854033e-08, No Iterations 21
Overset time step continuity errors : max local = 0.0043798172, sum local = 8.0907149e-08, global = 3.2761282e-08, cumulative = 7.326946e-08
In manipulateMatrix: true bou: 267 int: 0
amgSolver:  Solving for p, Initial residual = 0.18532273, Final residual = 7.0600865e-08, No Iterations 20
Overset time step continuity errors : max local = 0.001336015, sum local = 4.2285372e-08, global = -1.772693e-08, cumulative = 5.554253e-08
In manipulateMatrix: true bou: 267 int: 0
amgSolver:  Solving for p, Initial residual = 0.21561214, Final residual = 3.6079239e-08, No Iterations 22
Overset time step continuity errors : max local = 0.00051602169, sum local = 1.3111437e-08, global = 6.3010054e-09, cumulative = 6.1843535e-08
ExecutionTime = 0.76 s  ClockTime = 2 s

forces output:
    forces(pressure, viscous)((44.946141 294.99917 1.2280686e-17) (5.1395385 0.44892493 -4.6999608e-18))
    moment(pressure, viscous)((-14.749958 2.2473071 -28.454682) (-0.022446247 0.25697693 0.61791371))

Time = 0.11

Courant Number mean: 17.000316 max: 895.14856 velocity magnitude: 229.72707
In manipulateMatrix: true bou: 267 int: 0
smoothSolver:  Solving for Ux, Initial residual = 0.20105428, Final residual = 9.6500779e-08, No Iterations 98
smoothSolver:  Solving for Uy, Initial residual = 0.19409455, Final residual = 9.3615331e-08, No Iterations 104
In manipulateMatrix: true bou: 267 int: 0
amgSolver:  Solving for p, Initial residual = 0.49736685, Final residual = 8.4482566e-08, No Iterations 24
Overset time step continuity errors : max local = 0.00021293908, sum local = 4.1412212e-08, global = -9.1915394e-09, cumulative = 5.2651996e-08
In manipulateMatrix: true bou: 267 int: 0
amgSolver:  Solving for p, Initial residual = 0.12398505, Final residual = 9.848187e-08, No Iterations 22
Overset time step continuity errors : max local = 0.001986286, sum local = 1.7202763e-07, global = 3.2887895e-08, cumulative = 8.5539891e-08
In manipulateMatrix: true bou: 267 int: 0
amgSolver:  Solving for p, Initial residual = 0.18856772, Final residual = 9.1883902e-08, No Iterations 21
Overset time step continuity errors : max local = 0.0006746946, sum local = 5.510698e-08, global = -9.9661323e-09, cumulative = 7.5573758e-08
In manipulateMatrix: true bou: 267 int: 0
amgSolver:  Solving for p, Initial residual = 0.20671317, Final residual = 5.9847693e-08, No Iterations 20
Overset time step continuity errors : max local = 0.00043944764, sum local = 2.2528391e-08, global = 9.2495795e-09, cumulative = 8.4823338e-08
ExecutionTime = 0.82 s  ClockTime = 2 s

forces output:
    forces(pressure, viscous)((66.124462 431.02486 4.8130659e-17) (5.4252602 0.3844648 -3.7482015e-18))
    moment(pressure, viscous)((-21.551243 3.3062231 78.706739) (-0.01922324 0.27126301 0.5769177))

Time = 0.12

Courant Number mean: 17.007074 max: 861.55975 velocity magnitude: 225.55153
In manipulateMatrix: true bou: 267 int: 0
smoothSolver:  Solving for Ux, Initial residual = 0.23629148, Final residual = 9.1934276e-08, No Iterations 98
smoothSolver:  Solving for Uy, Initial residual = 0.22651806, Final residual = 9.4589643e-08, No Iterations 114
In manipulateMatrix: true bou: 267 int: 0
amgSolver:  Solving for p, Initial residual = 0.51135476, Final residual = 7.5168234e-08, No Iterations 22
Overset time step continuity errors : max local = 0.00027975875, sum local = 3.9223731e-08, global = -8.6625265e-09, cumulative = 7.6160811e-08
In manipulateMatrix: true bou: 267 int: 0
amgSolver:  Solving for p, Initial residual = 0.12575801, Final residual = 9.306129e-08, No Iterations 20
Overset time step continuity errors : max local = 0.0025782101, sum local = 2.1610266e-07, global = 4.6161594e-08, cumulative = 1.223224e-07
In manipulateMatrix: true bou: 267 int: 0
amgSolver:  Solving for p, Initial residual = 0.17581666, Final residual = 8.2129086e-08, No Iterations 20
Overset time step continuity errors : max local = 0.00053160365, sum local = 8.0423368e-08, global = -3.7021486e-08, cumulative = 8.5300919e-08
In manipulateMatrix: true bou: 267 int: 0
amgSolver:  Solving for p, Initial residual = 0.21957742, Final residual = 3.0500508e-08, No Iterations 19
Overset time step continuity errors : max local = 0.0002652877, sum local = 1.5410156e-08, global = 7.6093791e-09, cumulative = 9.2910298e-08
ExecutionTime = 0.88 s  ClockTime = 2 s

forces output:
    forces(pressure, viscous)((61.134288 333.94589 5.6201929e-17) (3.8464808 0.57191707 -4.336154e-18))
    moment(pressure, viscous)((-16.697295 3.0567144 21.481341) (-0.028595854 0.19232404 0.58877787))

Time = 0.13

Courant Number mean: 17.055792 max: 1003.1049 velocity magnitude: 290.9374
In manipulateMatrix: true bou: 267 int: 0
smoothSolver:  Solving for Ux, Initial residual = 0.2650286, Final residual = 9.5128954e-08, No Iterations 98
smoothSolver:  Solving for Uy, Initial residual = 0.27488213, Final residual = 9.0195698e-08, No Iterations 114
In manipulateMatrix: true bou: 267 int: 0
amgSolver:  Solving for p, Initial residual = 0.600472, Final residual = 9.00765e-08, No Iterations 25
Overset time step continuity errors : max local = 0.001551402, sum local = 6.8028269e-08, global = -2.3529661e-08, cumulative = 6.9380637e-08
In manipulateMatrix: true bou: 267 int: 0
amgSolver:  Solving for p, Initial residual = 0.17899399, Final residual = 7.2863678e-08, No Iterations 24
Overset time step continuity errors : max local = 0.0032148908, sum local = 1.79366e-07, global = 4.10435e-08, cumulative = 1.1042414e-07
In manipulateMatrix: true bou: 267 int: 0
amgSolver:  Solving for p, Initial residual = 0.24143748, Final residual = 6.6301688e-08, No Iterations 21
Overset time step continuity errors : max local = 0.001142309, sum local = 4.8681437e-08, global = -1.4834904e-08, cumulative = 9.5589233e-08
In manipulateMatrix: true bou: 267 int: 0
amgSolver:  Solving for p, Initial residual = 0.23628046, Final residual = 6.7202978e-08, No Iterations 22
Overset time step continuity errors : max local = 0.00039003275, sum local = 3.03167e-08, global = 1.0812805e-08, cumulative = 1.0640204e-07
ExecutionTime = 0.94 s  ClockTime = 2 s

forces output:
    forces(pressure, viscous)((51.271949 357.27881 5.3957112e-17) (5.5876066 0.60726134 -3.1458755e-18))
    moment(pressure, viscous)((-17.863941 2.5635975 52.451858) (-0.030363067 0.27938033 0.78704271))

Time = 0.14

Courant Number mean: 16.907615 max: 799.71059 velocity magnitude: 199.9277
In manipulateMatrix: true bou: 267 int: 0
smoothSolver:  Solving for Ux, Initial residual = 0.25121065, Final residual = 9.1245456e-08, No Iterations 113
smoothSolver:  Solving for Uy, Initial residual = 0.26597652, Final residual = 9.2969174e-08, No Iterations 111
In manipulateMatrix: true bou: 267 int: 0
amgSolver:  Solving for p, Initial residual = 0.57297236, Final residual = 6.6589602e-08, No Iterations 24
Overset time step continuity errors : max local = 0.00078461685, sum local = 4.565664e-08, global = -1.628113e-08, cumulative = 9.0120909e-08
In manipulateMatrix: true bou: 267 int: 0
amgSolver:  Solving for p, Initial residual = 0.10772717, Final residual = 6.6592949e-08, No Iterations 23
Overset time step continuity errors : max local = 0.0042870789, sum local = 1.7482446e-07, global = 7.7188109e-08, cumulative = 1.6730902e-07
In manipulateMatrix: true bou: 267 int: 0
amgSolver:  Solving for p, Initial residual = 0.1603576, Final residual = 5.6380322e-08, No Iterations 23
Overset time step continuity errors : max local = 0.00033351752, sum local = 5.0842239e-08, global = -3.1786384e-08, cumulative = 1.3552263e-07
In manipulateMatrix: true bou: 267 int: 0
amgSolver:  Solving for p, Initial residual = 0.18699849, Final residual = 5.8206868e-08, No Iterations 20
Overset time step continuity errors : max local = 0.00055512079, sum local = 3.052043e-08, global = -1.3773797e-08, cumulative = 1.2174884e-07
ExecutionTime = 1.01 s  ClockTime = 2 s

forces output:
    forces(pressure, viscous)((58.602248 280.59474 6.7052094e-17) (4.2654832 0.098408082 -4.1610109e-18))
    moment(pressure, viscous)((-14.029737 2.9301124 6.0040725) (-0.0049204041 0.21327416 0.31719028))

Time = 0.15

Courant Number mean: 16.862667 max: 954.15805 velocity magnitude: 238.53958
In manipulateMatrix: true bou: 267 int: 0
smoothSolver:  Solving for Ux, Initial residual = 0.24044687, Final residual = 9.6482615e-08, No Iterations 99
smoothSolver:  Solving for Uy, Initial residual = 0.26740185, Final residual = 9.2548077e-08, No Iterations 103
In manipulateMatrix: true bou: 267 int: 0
amgSolver:  Solving for p, Initial residual = 0.61715571, Final residual = 6.2119018e-08, No Iterations 25
Overset time step continuity errors : max local = 0.00018034273, sum local = 4.5482734e-08, global = -2.2675473e-08, cumulative = 9.9073363e-08
In manipulateMatrix: true bou: 267 int: 0
amgSolver:  Solving for p, Initial residual = 0.19476751, Final residual = 5.6302274e-08, No Iterations 23
Overset time step continuity errors : max local = 0.010253446, sum local = 1.205914e-07, global = 6.9318517e-08, cumulative = 1.6839188e-07
In manipulateMatrix: true bou: 267 int: 0
amgSolver:  Solving for p, Initial residual = 0.24213488, Final residual = 5.1602624e-08, No Iterations 20
Overset time step continuity errors : max local = 0.00043481254, sum local = 3.1104458e-08, global = 1.5931773e-08, cumulative = 1.8432365e-07
In manipulateMatrix: true bou: 267 int: 0
amgSolver:  Solving for p, Initial residual = 0.21506738, Final residual = 8.0139686e-08, No Iterations 21
Overset time step continuity errors : max local = 0.003516432, sum local = 3.4673424e-08, global = 2.2194848e-08, cumulative = 2.065185e-07
ExecutionTime = 1.08 s  ClockTime = 3 s

forces output:
    forces(pressure, viscous)((55.362125 324.1263 6.4922729e-17) (4.8975673 0.9770772 -3.1195517e-18))
    moment(pressure, viscous)((-16.206315 2.7681062 48.75872) (-0.04885386 0.24487836 1.0055919))

Time = 0.16

Courant Number mean: 16.839517 max: 760.59941 velocity magnitude: 191.15532
In manipulateMatrix: true bou: 267 int: 0
smoothSolver:  Solving for Ux, Initial residual = 0.21348598, Final residual = 8.8656976e-08, No Iterations 108
smoothSolver:  Solving for Uy, Initial residual = 0.24013967, Final residual = 9.1154889e-08, No Iterations 100
In manipulateMatrix: true bou: 267 int: 0
amgSolver:  Solving for p, Initial residual = 0.52681286, Final residual = 7.7980038e-08, No Iterations 25
Overset time step continuity errors : max local = 0.0021467304, sum local = 4.6186215e-08, global = -2.1659042e-08, cumulative = 1.8485946e-07
In manipulateMatrix: true bou: 267 int: 0
amgSolver:  Solving for p, Initial residual = 0.10511229, Final residual = 6.9117233e-08, No Iterations 24
Overset time step continuity errors : max local = 0.0059773648, sum local = 1.3779004e-07, global = 5.9253027e-08, cumulative = 2.4411249e-07
In manipulateMatrix: true bou: 267 int: 0
amgSolver:  Solving for p, Initial residual = 0.14881925, Final residual = 6.5804891e-08, No Iterations 24
Overset time step continuity errors : max local = 0.0016374893, sum local = 4.9378976e-08, global = -2.5370796e-08, cumulative = 2.1874169e-07
In manipulateMatrix: true bou: 267 int: 0
amgSolver:  Solving for p, Initial residual = 0.16076811, Final residual = 6.7059022e-08, No Iterations 21
Overset time step continuity errors : max local = 0.0012170539, sum local = 2.9529726e-08, global = -1.4840034e-08, cumulative = 2.0390166e-07
ExecutionTime = 1.15 s  ClockTime = 3 s

forces output:
    forces(pressure, viscous)((51.201142 199.04926 6.5962196e-17) (4.6624679 0.20623381 -3.0444523e-18))
    moment(pressure, viscous)((-9.952463 2.5600571 -32.407132) (-0.010311691 0.23312339 0.40526985))

Time = 0.17

Courant Number mean: 16.835177 max: 794.02012 velocity magnitude: 198.50508
In manipulateMatrix: true bou: 267 int: 0
smoothSolver:  Solving for Ux, Initial residual = 0.18654022, Final residual = 9.0243823e-08, No Iterations 92
smoothSolver:  Solving for Uy, Initial residual = 0.23087294, Final residual = 9.8237934e-08, No Iterations 110
In manipulateMatrix: true bou: 267 int: 0
amgSolver:  Solving for p, Initial residual = 0.50948811, Final residual = 9.9886294e-08, No Iterations 24
Overset time step continuity errors : max local = 0.00071514513, sum local = 5.7535447e-08, global = -2.00419e-08, cumulative = 1.8385976e-07
In manipulateMatrix: true bou: 267 int: 0
amgSolver:  Solving for p, Initial residual = 0.17057394, Final residual = 6.131061e-08, No Iterations 23
Overset time step continuity errors : max local = 0.0016727714, sum local = 9.297325e-08, global = 4.4565094e-08, cumulative = 2.2842485e-07
In manipulateMatrix: true bou: 267 int: 0
amgSolver:  Solving for p, Initial residual = 0.20753976, Final residual = 8.652808e-08, No Iterations 20
Overset time step continuity errors : max local = 0.00054159288, sum local = 4.3907325e-08, global = -2.0342157e-08, cumulative = 2.080827e-07
In manipulateMatrix: true bou: 267 int: 0
amgSolver:  Solving for p, Initial residual = 0.18317145, Final residual = 6.9365875e-08, No Iterations 21
Overset time step continuity errors : max local = 0.0013481803, sum local = 2.5499156e-08, global = 1.6007048e-08, cumulative = 2.2408974e-07
ExecutionTime = 1.23 s  ClockTime = 3 s

forces output:
    forces(pressure, viscous)((57.810491 256.7314 7.6554449e-17) (5.7800492 0.18344899 -3.101705e-18))
    moment(pressure, viscous)((-12.83657 2.8905246 12.118712) (-0.0091724496 0.28900246 0.51845583))

Time = 0.18

Courant Number mean: 16.88727 max: 824.44269 velocity magnitude: 206.11073
In manipulateMatrix: true bou: 267 int: 0
smoothSolver:  Solving for Ux, Initial residual = 0.16965312, Final residual = 9.8097666e-08, No Iterations 107
smoothSolver:  Solving for Uy, Initial residual = 0.19171937, Final residual = 9.2540322e-08, No Iterations 90
In manipulateMatrix: true bou: 267 int: 0
amgSolver:  Solving for p, Initial residual = 0.45487996, Final residual = 9.1023686e-08, No Iterations 26
Overset time step continuity errors : max local = 0.00058665532, sum local = 4.3724067e-08, global = -1.4851301e-08, cumulative = 2.0923844e-07
In manipulateMatrix: true bou: 267 int: 0
amgSolver:  Solving for p, Initial residual = 0.11408285, Final residual = 5.6355779e-08, No Iterations 27
Overset time step continuity errors : max local = 0.0010998309, sum local = 8.0454831e-08, global = 3.5518573e-08, cumulative = 2.4475701e-07
In manipulateMatrix: true bou: 267 int: 0
amgSolver:  Solving for p, Initial residual = 0.1638153, Final residual = 7.1085709e-08, No Iterations 24
Overset time step continuity errors : max local = 0.00035718372, sum local = 3.8619462e-08, global = -1.831853e-08, cumulative = 2.2643848e-07
In manipulateMatrix: true bou: 267 int: 0
amgSolver:  Solving for p, Initial residual = 0.1775788, Final residual = 8.8256983e-08, No Iterations 22
Overset time step continuity errors : max local = 0.00058045089, sum local = 3.2014167e-08, global = 1.3394051e-08, cumulative = 2.3983254e-07
ExecutionTime = 1.33 s  ClockTime = 3 s

forces output:
    forces(pressure, viscous)((54.818849 186.36694 6.8570257e-17) (5.3664691 0.21017404 -4.1067481e-18))
    moment(pressure, viscous)((-9.3183471 2.7409424 -33.448163) (-0.010508702 0.26832345 0.44013225))

Time = 0.19

Courant Number mean: 16.92374 max: 836.34695 velocity magnitude: 222.71304
In manipulateMatrix: true bou: 267 int: 0
smoothSolver:  Solving for Ux, Initial residual = 0.17653963, Final residual = 8.3561459e-08, No Iterations 90
smoothSolver:  Solving for Uy, Initial residual = 0.19681977, Final residual = 8.9259321e-08, No Iterations 110
In manipulateMatrix: true bou: 267 int: 0
amgSolver:  Solving for p, Initial residual = 0.56307156, Final residual = 4.5066133e-08, No Iterations 29
Overset time step continuity errors : max local = 6.602215e-05, sum local = 2.5653926e-08, global = -2.010888e-08, cumulative = 2.1972366e-07
In manipulateMatrix: true bou: 267 int: 0
amgSolver:  Solving for p, Initial residual = 0.21248432, Final residual = 8.4106894e-08, No Iterations 24
Overset time step continuity errors : max local = 0.00099755333, sum local = 1.0861038e-07, global = 5.3557106e-09, cumulative = 2.2507937e-07
In manipulateMatrix: true bou: 267 int: 0
amgSolver:  Solving for p, Initial residual = 0.18399404, Final residual = 8.7622907e-08, No Iterations 24
Overset time step continuity errors : max local = 0.00078321428, sum local = 6.1089199e-08, global = -2.4744562e-08, cumulative = 2.003348e-07
In manipulateMatrix: true bou: 267 int: 0
amgSolver:  Solving for p, Initial residual = 0.20295173, Final residual = 7.4890378e-08, No Iterations 21
Overset time step continuity errors : max local = 0.00052068169, sum local = 3.0995641e-08, global = 5.4585466e-09, cumulative = 2.0579335e-07
ExecutionTime = 1.42 s  ClockTime = 3 s

forces output:
    forces(pressure, viscous)((38.612086 122.29812 4.7966123e-17) (5.7121293 0.6012743 -3.8043278e-18))
    moment(pressure, viscous)((-6.1149059 1.9306043 -71.652751) (-0.030063715 0.28560647 0.8668264))

Time = 0.2

Courant Number mean: 16.963523 max: 1044.7005 velocity magnitude: 265.04479
In manipulateMatrix: true bou: 267 int: 0
smoothSolver:  Solving for Ux, Initial residual = 0.22076312, Final residual = 9.1681656e-08, No Iterations 105
smoothSolver:  Solving for Uy, Initial residual = 0.23036311, Final residual = 9.1454831e-08, No Iterations 109
In manipulateMatrix: true bou: 267 int: 0
amgSolver:  Solving for p, Initial residual = 0.5329565, Final residual = 6.579165e-08, No Iterations 25
Overset time step continuity errors : max local = 0.00015169446, sum local = 4.0989028e-08, global = -1.8885819e-08, cumulative = 1.8690753e-07
In manipulateMatrix: true bou: 267 int: 0
amgSolver:  Solving for p, Initial residual = 0.13227773, Final residual = 8.7933201e-08, No Iterations 23
Overset time step continuity errors : max local = 0.0025562167, sum local = 2.1486699e-07, global = 9.0983132e-08, cumulative = 2.7789066e-07
In manipulateMatrix: true bou: 267 int: 0
amgSolver:  Solving for p, Initial residual = 0.24510935, Final residual = 7.2209258e-08, No Iterations 23
Overset time step continuity errors : max local = 0.00024792762, sum local = 4.821791e-08, global = -1.2184888e-08, cumulative = 2.6570578e-07
In manipulateMatrix: true bou: 267 int: 0
amgSolver:  Solving for p, Initial residual = 0.26120808, Final residual = 5.8452116e-08, No Iterations 22
Overset time step continuity errors : max local = 0.00031345851, sum local = 3.1482797e-08, global = 1.6203e-08, cumulative = 2.8190878e-07
ExecutionTime = 1.53 s  ClockTime = 3 s

forces output:
    forces(pressure, viscous)((69.017908 357.77441 7.0143413e-17) (4.0738137 0.55975098 -3.8092186e-18))
    moment(pressure, viscous)((-17.88872 3.4508954 101.5052) (-0.027987549 0.20369068 0.63891606))

Time = 0.21

Courant Number mean: 17.17028 max: 2016.376 velocity magnitude: 719.46039
In manipulateMatrix: true bou: 267 int: 0
smoothSolver:  Solving for Ux, Initial residual = 0.48151225, Final residual = 9.7247953e-08, No Iterations 271
smoothSolver:  Solving for Uy, Initial residual = 0.38588128, Final residual = 9.9300487e-08, No Iterations 289
In manipulateMatrix: true bou: 267 int: 0
amgSolver:  Solving for p, Initial residual = 0.70434891, Final residual = 5.7842428e-08, No Iterations 26
Overset time step continuity errors : max local = 0.00025728916, sum local = 5.8510461e-08, global = -2.8164342e-08, cumulative = 2.5374443e-07
In manipulateMatrix: true bou: 267 int: 0
amgSolver:  Solving for p, Initial residual = 0.18412575, Final residual = 8.544486e-08, No Iterations 24
Overset time step continuity errors : max local = 0.0054978718, sum local = 3.4293341e-07, global = 8.8464952e-08, cumulative = 3.4220939e-07
In manipulateMatrix: true bou: 267 int: 0
amgSolver:  Solving for p, Initial residual = 0.16754482, Final residual = 9.6094548e-08, No Iterations 23
Overset time step continuity errors : max local = 0.001088934, sum local = 1.8448937e-07, global = -3.5332062e-08, cumulative = 3.0687732e-07
In manipulateMatrix: true bou: 267 int: 0
amgSolver:  Solving for p, Initial residual = 0.24674779, Final residual = 8.7967953e-08, No Iterations 23
Overset time step continuity errors : max local = 0.00085921384, sum local = 7.7041506e-08, global = 2.311073e-08, cumulative = 3.2998805e-07
ExecutionTime = 1.64 s  ClockTime = 3 s

forces output:
    forces(pressure, viscous)((-21.354868 -453.98709 -4.7141682e-17) (4.8669514 1.0999329 7.98643e-19))
    moment(pressure, viscous)((22.699355 -1.0677434 -408.95545) (-0.054996643 0.24334757 1.1705234))

Time = 0.22

Courant Number mean: 17.619594 max: 1937.0014 velocity magnitude: 608.10025
In manipulateMatrix: true bou: 267 int: 0
smoothSolver:  Solving for Ux, Initial residual = 0.51365834, Final residual = 9.9998818e-08, No Iterations 149
smoothSolver:  Solving for Uy, Initial residual = 0.50633239, Final residual = 9.239448e-08, No Iterations 144
In manipulateMatrix: true bou: 267 int: 0
amgSolver:  Solving for p, Initial residual = 0.5598336, Final residual = 2.3604995e-08, No Iterations 28
Overset time step continuity errors : max local = 0.00017582142, sum local = 2.6427645e-08, global = -8.6329486e-09, cumulative = 3.2135511e-07
In manipulateMatrix: true bou: 267 int: 0
amgSolver:  Solving for p, Initial residual = 0.15012332, Final residual = 6.3769095e-08, No Iterations 24
Overset time step continuity errors : max local = 0.0040403004, sum local = 2.4045284e-07, global = 1.0452061e-07, cumulative = 4.2587572e-07
In manipulateMatrix: true bou: 267 int: 0
amgSolver:  Solving for p, Initial residual = 0.39938322, Final residual = 8.8513121e-08, No Iterations 20
Overset time step continuity errors : max local = 0.00051275142, sum local = 5.3384197e-08, global = 2.4082411e-08, cumulative = 4.4995813e-07
In manipulateMatrix: true bou: 267 int: 0
amgSolver:  Solving for p, Initial residual = 0.28167174, Final residual = 9.0486016e-08, No Iterations 19
Overset time step continuity errors : max local = 0.00015354932, sum local = 4.4494002e-08, global = -2.3961479e-08, cumulative = 4.2599665e-07
ExecutionTime = 1.73 s  ClockTime = 3 s

forces output:
    forces(pressure, viscous)((74.218889 341.72984 1.3589429e-16) (8.2354285 -1.1392626 -4.0238691e-18))
    moment(pressure, viscous)((-17.086492 3.7109445 107.70091) (0.056963132 0.41177143 0.014318183))

Time = 0.23

Courant Number mean: 17.103694 max: 705.28753 velocity magnitude: 197.98115
In manipulateMatrix: true bou: 267 int: 0
smoothSolver:  Solving for Ux, Initial residual = 0.44537114, Final residual = 5.3200017e-08, No Iterations 91
smoothSolver:  Solving for Uy, Initial residual = 0.42843701, Final residual = 6.57009e-08, No Iterations 95
In manipulateMatrix: true bou: 267 int: 0
amgSolver:  Solving for p, Initial residual = 0.70584292, Final residual = 8.4952154e-08, No Iterations 24
Overset time step continuity errors : max local = 0.00067081093, sum local = 6.0755878e-08, global = -1.9281645e-08, cumulative = 4.06715e-07
In manipulateMatrix: true bou: 267 int: 0
amgSolver:  Solving for p, Initial residual = 0.32492346, Final residual = 7.8511048e-08, No Iterations 24
Overset time step continuity errors : max local = 0.00091472445, sum local = 9.5435386e-08, global = 3.1735145e-08, cumulative = 4.3845015e-07
In manipulateMatrix: true bou: 267 int: 0
amgSolver:  Solving for p, Initial residual = 0.27739616, Final residual = 7.3295039e-08, No Iterations 25
Overset time step continuity errors : max local = 0.00026072687, sum local = 4.1027423e-08, global = -3.8139156e-09, cumulative = 4.3463623e-07
In manipulateMatrix: true bou: 267 int: 0
amgSolver:  Solving for p, Initial residual = 0.24793619, Final residual = 9.8568362e-08, No Iterations 25
Overset time step continuity errors : max local = 0.00054002271, sum local = 4.0901282e-08, global = 9.2953993e-09, cumulative = 4.4393163e-07
ExecutionTime = 1.82 s  ClockTime = 3 s

forces output:
    forces(pressure, viscous)((15.067814 -95.067571 -6.7800105e-18) (7.1314658 0.35559112 -7.5598464e-19))
    moment(pressure, viscous)((4.7533785 0.75339068 -207.6011) (-0.017779556 0.35657329 0.34749859))

Time = 0.24

Courant Number mean: 17.026963 max: 669.62193 velocity magnitude: 262.27138
In manipulateMatrix: true bou: 267 int: 0
smoothSolver:  Solving for Ux, Initial residual = 0.37632734, Final residual = 6.0927183e-08, No Iterations 89
smoothSolver:  Solving for Uy, Initial residual = 0.38724771, Final residual = 5.8475438e-08, No Iterations 93
In manipulateMatrix: true bou: 267 int: 0
amgSolver:  Solving for p, Initial residual = 0.79269923, Final residual = 7.1802516e-08, No Iterations 25
Overset time step continuity errors : max local = 8.658422e-05, sum local = 4.4002645e-08, global = -3.2113981e-08, cumulative = 4.1181765e-07
In manipulateMatrix: true bou: 267 int: 0
amgSolver:  Solving for p, Initial residual = 0.35598692, Final residual = 6.0505533e-08, No Iterations 25
Overset time step continuity errors : max local = 0.0012882923, sum local = 6.0953844e-08, global = 4.4518448e-08, cumulative = 4.563361e-07
In manipulateMatrix: true bou: 267 int: 0
amgSolver:  Solving for p, Initial residual = 0.19961352, Final residual = 9.7555018e-08, No Iterations 22
Overset time step continuity errors : max local = 0.00017400181, sum local = 1.0004093e-07, global = -5.6717802e-08, cumulative = 3.9961829e-07
In manipulateMatrix: true bou: 267 int: 0
amgSolver:  Solving for p, Initial residual = 0.33491666, Final residual = 8.6517137e-08, No Iterations 23
Overset time step continuity errors : max local = 0.00070091042, sum local = 3.2594028e-08, global = 2.375782e-08, cumulative = 4.2337611e-07
ExecutionTime = 1.89 s  ClockTime = 3 s

forces output:
    forces(pressure, viscous)((49.322119 194.51622 6.9715212e-17) (6.6498886 -0.7208549 -5.1009148e-18))
    moment(pressure, viscous)((-9.725811 2.466106 -55.026733) (0.036042745 0.33249443 0.20142976))

Time = 0.25

Courant Number mean: 16.979047 max: 949.30755 velocity magnitude: 239.45486
In manipulateMatrix: true bou: 267 int: 0
smoothSolver:  Solving for Ux, Initial residual = 0.26855303, Final residual = 8.8823332e-08, No Iterations 91
smoothSolver:  Solving for Uy, Initial residual = 0.25562095, Final residual = 9.8081872e-08, No Iterations 97
In manipulateMatrix: true bou: 267 int: 0
amgSolver:  Solving for p, Initial residual = 0.68150637, Final residual = 6.5031847e-08, No Iterations 25
Overset time step continuity errors : max local = 0.00011091562, sum local = 3.3563441e-08, global = -2.1072711e-08, cumulative = 4.023034e-07
In manipulateMatrix: true bou: 267 int: 0
amgSolver:  Solving for p, Initial residual = 0.33476112, Final residual = 9.1429645e-08, No Iterations 24
Overset time step continuity errors : max local = 0.0019955793, sum local = 7.2252568e-08, global = 3.3423071e-08, cumulative = 4.3572647e-07
In manipulateMatrix: true bou: 267 int: 0
amgSolver:  Solving for p, Initial residual = 0.19034515, Final residual = 7.0187748e-08, No Iterations 21
Overset time step continuity errors : max local = 0.00059683184, sum local = 6.8379961e-08, global = -2.477732e-08, cumulative = 4.1094915e-07
In manipulateMatrix: true bou: 267 int: 0
amgSolver:  Solving for p, Initial residual = 0.27725096, Final residual = 6.5678203e-08, No Iterations 22
Overset time step continuity errors : max local = 0.00028948493, sum local = 2.8237601e-08, global = 7.6187399e-09, cumulative = 4.1856789e-07
ExecutionTime = 1.96 s  ClockTime = 3 s

forces output:
    forces(pressure, viscous)((24.39223 138.75602 7.9272956e-19) (5.7667653 0.80232627 -3.2083319e-18))
    moment(pressure, viscous)((-6.9378009 1.2196115 -90.541197) (-0.040116313 0.28833826 0.75661812))

Time = 0.26

Courant Number mean: 17.098348 max: 1139.0017 velocity magnitude: 284.7505
In manipulateMatrix: true bou: 267 int: 0
smoothSolver:  Solving for Ux, Initial residual = 0.29594434, Final residual = 4.8314919e-08, No Iterations 84
smoothSolver:  Solving for Uy, Initial residual = 0.25780463, Final residual = 5.5164186e-08, No Iterations 88
In manipulateMatrix: true bou: 267 int: 0
amgSolver:  Solving for p, Initial residual = 0.62626051, Final residual = 8.8036739e-08, No Iterations 24
Overset time step continuity errors : max local = 0.00013129848, sum local = 5.3398302e-08, global = -1.2164062e-08, cumulative = 4.0640383e-07
In manipulateMatrix: true bou: 267 int: 0
amgSolver:  Solving for p, Initial residual = 0.12676264, Final residual = 8.2373402e-08, No Iterations 22
Overset time step continuity errors : max local = 0.0033984077, sum local = 1.9113585e-07, global = 4.5787729e-08, cumulative = 4.5219156e-07
In manipulateMatrix: true bou: 267 int: 0
amgSolver:  Solving for p, Initial residual = 0.18857653, Final residual = 4.3338322e-08, No Iterations 20
Overset time step continuity errors : max local = 0.00010512218, sum local = 3.8138659e-08, global = -1.0934943e-08, cumulative = 4.4125662e-07
In manipulateMatrix: true bou: 267 int: 0
amgSolver:  Solving for p, Initial residual = 0.19996761, Final residual = 6.067454e-08, No Iterations 20
Overset time step continuity errors : max local = 0.00011228546, sum local = 3.2095455e-08, global = -8.5795893e-09, cumulative = 4.3267703e-07
ExecutionTime = 2.02 s  ClockTime = 3 s

forces output:
    forces(pressure, viscous)((35.474422 274.69841 2.2449314e-17) (6.0962515 -0.37930557 -5.0637996e-18))
    moment(pressure, viscous)((-13.734921 1.7737211 -7.1728484) (0.018965278 0.30481258 0.17411463))

Time = 0.27

Courant Number mean: 17.10702 max: 738.66805 velocity magnitude: 190.11991
In manipulateMatrix: true bou: 267 int: 0
smoothSolver:  Solving for Ux, Initial residual = 0.29592856, Final residual = 8.6301203e-08, No Iterations 104
smoothSolver:  Solving for Uy, Initial residual = 0.27841805, Final residual = 9.7706479e-08, No Iterations 103
In manipulateMatrix: true bou: 267 int: 0
amgSolver:  Solving for p, Initial residual = 0.55863969, Final residual = 8.3509054e-08, No Iterations 24
Overset time step continuity errors : max local = 0.00020789084, sum local = 5.3195914e-08, global = -2.024746e-08, cumulative = 4.1242957e-07
In manipulateMatrix: true bou: 267 int: 0
amgSolver:  Solving for p, Initial residual = 0.094630795, Final residual = 9.3574552e-08, No Iterations 22
Overset time step continuity errors : max local = 0.0044795282, sum local = 2.3345289e-07, global = 8.023752e-08, cumulative = 4.9266709e-07
In manipulateMatrix: true bou: 267 int: 0
amgSolver:  Solving for p, Initial residual = 0.15964753, Final residual = 5.8378916e-08, No Iterations 22
Overset time step continuity errors : max local = 0.00010389758, sum local = 4.2970831e-08, global = -2.0965356e-08, cumulative = 4.7170173e-07
In manipulateMatrix: true bou: 267 int: 0
amgSolver:  Solving for p, Initial residual = 0.1699933, Final residual = 6.2246734e-08, No Iterations 18
Overset time step continuity errors : max local = 0.00037426875, sum local = 2.6867866e-08, global = 1.1781634e-08, cumulative = 4.8348337e-07
ExecutionTime = 2.08 s  ClockTime = 4 s

forces output:
    forces(pressure, viscous)((39.618692 233.24853 1.8198667e-17) (5.8554174 0.32130746 -5.0241323e-18))
    moment(pressure, viscous)((-11.662426 1.9809346 -47.091793) (-0.016065373 0.29277087 0.45459859))

Time = 0.28

Courant Number mean: 16.871759 max: 792.46491 velocity magnitude: 210.53931
In manipulateMatrix: true bou: 267 int: 0
smoothSolver:  Solving for Ux, Initial residual = 0.20533293, Final residual = 4.1857357e-08, No Iterations 85
smoothSolver:  Solving for Uy, Initial residual = 0.21775615, Final residual = 6.9235046e-08, No Iterations 90
In manipulateMatrix: true bou: 267 int: 0
amgSolver:  Solving for p, Initial residual = 0.5888773, Final residual = 7.2666595e-08, No Iterations 24
Overset time step continuity errors : max local = 0.00028203882, sum local = 4.1871754e-08, global = -8.8756052e-09, cumulative = 4.7460776e-07
In manipulateMatrix: true bou: 267 int: 0
amgSolver:  Solving for p, Initial residual = 0.16176681, Final residual = 8.3526152e-08, No Iterations 22
Overset time step continuity errors : max local = 0.0011934, sum local = 1.3631948e-07, global = 4.1388794e-08, cumulative = 5.1599656e-07
In manipulateMatrix: true bou: 267 int: 0
amgSolver:  Solving for p, Initial residual = 0.16660905, Final residual = 3.7573142e-08, No Iterations 22
Overset time step continuity errors : max local = 0.00014558835, sum local = 2.8122184e-08, global = -6.9115824e-09, cumulative = 5.0908497e-07
In manipulateMatrix: true bou: 267 int: 0
amgSolver:  Solving for p, Initial residual = 0.17779179, Final residual = 5.1810831e-08, No Iterations 21
Overset time step continuity errors : max local = 0.0012289249, sum local = 2.1735217e-08, global = 1.3051859e-08, cumulative = 5.2213683e-07
ExecutionTime = 2.15 s  ClockTime = 4 s

forces output:
    forces(pressure, viscous)((51.000136 332.0005 3.1485305e-17) (5.2301849 0.35528247 -6.1390277e-18))
    moment(pressure, viscous)((-16.600025 2.5500068 20.003028) (-0.017764123 0.26150924 0.60571409))

Time = 0.29

Courant Number mean: 17.039176 max: 770.82445 velocity magnitude: 192.70617
In manipulateMatrix: true bou: 267 int: 0
smoothSolver:  Solving for Ux, Initial residual = 0.20274722, Final residual = 9.6327298e-08, No Iterations 105
smoothSolver:  Solving for Uy, Initial residual = 0.20264835, Final residual = 9.7095186e-08, No Iterations 113
In manipulateMatrix: true bou: 267 int: 0
amgSolver:  Solving for p, Initial residual = 0.50290291, Final residual = 5.991e-08, No Iterations 25
Overset time step continuity errors : max local = 0.00022994989, sum local = 2.8306736e-08, global = -1.0422722e-08, cumulative = 5.1171411e-07
In manipulateMatrix: true bou: 267 int: 0
amgSolver:  Solving for p, Initial residual = 0.1053249, Final residual = 6.0726773e-08, No Iterations 23
Overset time step continuity errors : max local = 0.0023217311, sum local = 1.080132e-07, global = 5.1632361e-08, cumulative = 5.6334647e-07
In manipulateMatrix: true bou: 267 int: 0
amgSolver:  Solving for p, Initial residual = 0.16941441, Final residual = 6.2375771e-08, No Iterations 22
Overset time step continuity errors : max local = 0.00012442934, sum local = 4.0693162e-08, global = -1.5314865e-08, cumulative = 5.4803161e-07
In manipulateMatrix: true bou: 267 int: 0
amgSolver:  Solving for p, Initial residual = 0.20506407, Final residual = 7.7457043e-08, No Iterations 21
Overset time step continuity errors : max local = 0.00111353, sum local = 3.0235633e-08, global = 1.1133182e-08, cumulative = 5.5916479e-07
ExecutionTime = 2.23 s  ClockTime = 4 s

forces output:
    forces(pressure, viscous)((61.532984 356.0243 3.7969043e-17) (4.7626642 0.43645838 -4.5212006e-18))
    moment(pressure, viscous)((-17.801215 3.0766492 38.816166) (-0.021822919 0.23813321 0.49288988))

Time = 0.3

Courant Number mean: 17.002327 max: 827.06306 velocity magnitude: 287.88628
In manipulateMatrix: true bou: 267 int: 0
smoothSolver:  Solving for Ux, Initial residual = 0.23894392, Final residual = 9.4870496e-08, No Iterations 131
smoothSolver:  Solving for Uy, Initial residual = 0.2015894, Final residual = 9.8592183e-08, No Iterations 133
In manipulateMatrix: true bou: 267 int: 0
amgSolver:  Solving for p, Initial residual = 0.62534819, Final residual = 7.0107344e-08, No Iterations 26
Overset time step continuity errors : max local = 0.0010360066, sum local = 4.4871972e-08, global = -1.5852261e-08, cumulative = 5.4331253e-07
In manipulateMatrix: true bou: 267 int: 0
amgSolver:  Solving for p, Initial residual = 0.16158153, Final residual = 8.0367929e-08, No Iterations 24
Overset time step continuity errors : max local = 0.0030021927, sum local = 1.6916126e-07, global = 5.9007157e-08, cumulative = 6.0231969e-07
In manipulateMatrix: true bou: 267 int: 0
amgSolver:  Solving for p, Initial residual = 0.17964465, Final residual = 6.9896908e-08, No Iterations 23
Overset time step continuity errors : max local = 0.00091624005, sum local = 6.9454437e-08, global = -2.4099354e-08, cumulative = 5.7822033e-07
In manipulateMatrix: true bou: 267 int: 0
amgSolver:  Solving for p, Initial residual = 0.20693243, Final residual = 9.7210284e-08, No Iterations 22
Overset time step continuity errors : max local = 0.0010633799, sum local = 5.1095312e-08, global = 3.8083948e-08, cumulative = 6.1630428e-07
ExecutionTime = 2.31 s  ClockTime = 4 s

forces output:
    forces(pressure, viscous)((55.187239 282.8823 4.1819974e-17) (4.3097856 0.91507682 -3.6155321e-18))
    moment(pressure, viscous)((-14.144115 2.7593619 -1.9282756) (-0.045753841 0.21548928 0.95135143))

Time = 0.31

Courant Number mean: 17.079402 max: 1136.5352 velocity magnitude: 284.13387
In manipulateMatrix: true bou: 267 int: 0
smoothSolver:  Solving for Ux, Initial residual = 0.26173081, Final residual = 8.8933796e-08, No Iterations 91
smoothSolver:  Solving for Uy, Initial residual = 0.26256859, Final residual = 8.7367598e-08, No Iterations 95
In manipulateMatrix: true bou: 267 int: 0
amgSolver:  Solving for p, Initial residual = 0.48166191, Final residual = 9.7429408e-08, No Iterations 25
Overset time step continuity errors : max local = 0.00030968899, sum local = 5.2356795e-08, global = -1.6492444e-08, cumulative = 5.9981184e-07
In manipulateMatrix: true bou: 267 int: 0
amgSolver:  Solving for p, Initial residual = 0.11106448, Final residual = 8.4436555e-08, No Iterations 23
Overset time step continuity errors : max local = 0.0040188869, sum local = 1.6887341e-07, global = 5.068558e-08, cumulative = 6.5049742e-07
In manipulateMatrix: true bou: 267 int: 0
amgSolver:  Solving for p, Initial residual = 0.24978114, Final residual = 7.8471413e-08, No Iterations 20
Overset time step continuity errors : max local = 0.00048093373, sum local = 3.3061486e-08, global = 1.2028346e-08, cumulative = 6.6252576e-07
In manipulateMatrix: true bou: 267 int: 0
amgSolver:  Solving for p, Initial residual = 0.19172705, Final residual = 6.5123254e-08, No Iterations 22
Overset time step continuity errors : max local = 0.00027721794, sum local = 2.344087e-08, global = 5.12718e-09, cumulative = 6.6765294e-07
ExecutionTime = 2.37 s  ClockTime = 4 s

forces output:
    forces(pressure, viscous)((67.741418 401.75563 5.9333109e-17) (5.9826689 0.20458164 -2.9063455e-18))
    moment(pressure, viscous)((-20.087781 3.3870709 84.873464) (-0.010229082 0.29913344 0.48734868))

Time = 0.32

Courant Number mean: 17.020891 max: 696.72485 velocity magnitude: 196.85082
In manipulateMatrix: true bou: 267 int: 0
smoothSolver:  Solving for Ux, Initial residual = 0.22819133, Final residual = 9.2545973e-08, No Iterations 114
smoothSolver:  Solving for Uy, Initial residual = 0.22153648, Final residual = 9.0384707e-08, No Iterations 111
In manipulateMatrix: true bou: 267 int: 0
amgSolver:  Solving for p, Initial residual = 0.51773604, Final residual = 6.9910821e-08, No Iterations 24
Overset time step continuity errors : max local = 0.0014112232, sum local = 3.5834945e-08, global = -1.3265202e-08, cumulative = 6.5438774e-07
In manipulateMatrix: true bou: 267 int: 0
amgSolver:  Solving for p, Initial residual = 0.14245643, Final residual = 7.289221e-08, No Iterations 25
Overset time step continuity errors : max local = 0.004933875, sum local = 1.0786876e-07, global = -3.7597483e-08, cumulative = 6.1679026e-07
In manipulateMatrix: true bou: 267 int: 0
amgSolver:  Solving for p, Initial residual = 0.13520201, Final residual = 7.0002742e-08, No Iterations 25
Overset time step continuity errors : max local = 0.0016074346, sum local = 5.151026e-08, global = -2.3647768e-08, cumulative = 5.9314249e-07
In manipulateMatrix: true bou: 267 int: 0
amgSolver:  Solving for p, Initial residual = 0.14956036, Final residual = 6.0279359e-08, No Iterations 22
Overset time step continuity errors : max local = 0.00056818345, sum local = 2.7230716e-08, global = -1.5446658e-08, cumulative = 5.7769583e-07
ExecutionTime = 2.46 s  ClockTime = 4 s

forces output:
    forces(pressure, viscous)((51.686861 234.93705 3.994428e-17) (5.1005513 0.13914756 -4.9246477e-18))
    moment(pressure, viscous)((-11.746853 2.584343 -29.443664) (-0.006957378 0.25502756 0.34485442))

Time = 0.33

Courant Number mean: 16.925894 max: 753.32338 velocity magnitude: 201.85108
In manipulateMatrix: true bou: 267 int: 0
smoothSolver:  Solving for Ux, Initial residual = 0.22030742, Final residual = 9.2453401e-08, No Iterations 110
smoothSolver:  Solving for Uy, Initial residual = 0.22968667, Final residual = 9.5371254e-08, No Iterations 123
In manipulateMatrix: true bou: 267 int: 0
amgSolver:  Solving for p, Initial residual = 0.56155097, Final residual = 5.3613682e-08, No Iterations 24
Overset time step continuity errors : max local = 0.00013715469, sum local = 3.2854362e-08, global = -2.1438833e-08, cumulative = 5.56257e-07
In manipulateMatrix: true bou: 267 int: 0
amgSolver:  Solving for p, Initial residual = 0.25269833, Final residual = 5.4954345e-08, No Iterations 23
Overset time step continuity errors : max local = 0.0067694642, sum local = 5.7969192e-08, global = 3.5936342e-08, cumulative = 5.9219334e-07
In manipulateMatrix: true bou: 267 int: 0
amgSolver:  Solving for p, Initial residual = 0.28314925, Final residual = 9.9576367e-08, No Iterations 18
Overset time step continuity errors : max local = 6.3490116e-05, sum local = 3.4736985e-08, global = -2.6435972e-08, cumulative = 5.6575737e-07
In manipulateMatrix: true bou: 267 int: 0
amgSolver:  Solving for p, Initial residual = 0.23221508, Final residual = 8.0120253e-08, No Iterations 22
Overset time step continuity errors : max local = 0.0021968631, sum local = 2.3188568e-08, global = 8.1464675e-09, cumulative = 5.7390384e-07
ExecutionTime = 2.53 s  ClockTime = 4 s

forces output:
    forces(pressure, viscous)((55.400522 319.84202 4.7484528e-17) (6.2644447 0.3900632 -3.5788241e-18))
    moment(pressure, viscous)((-15.992101 2.7700261 27.034675) (-0.01950316 0.31322223 0.69272832))

Time = 0.34

Courant Number mean: 16.846386 max: 711.7978 velocity magnitude: 189.32911
In manipulateMatrix: true bou: 267 int: 0
smoothSolver:  Solving for Ux, Initial residual = 0.1850303, Final residual = 8.7805007e-08, No Iterations 90
smoothSolver:  Solving for Uy, Initial residual = 0.17929792, Final residual = 8.6704449e-08, No Iterations 92
In manipulateMatrix: true bou: 267 int: 0
amgSolver:  Solving for p, Initial residual = 0.50431852, Final residual = 8.4516615e-08, No Iterations 24
Overset time step continuity errors : max local = 0.00044580402, sum local = 3.4299008e-08, global = -1.5584331e-08, cumulative = 5.583195e-07
In manipulateMatrix: true bou: 267 int: 0
amgSolver:  Solving for p, Initial residual = 0.17980624, Final residual = 5.9176181e-08, No Iterations 24
Overset time step continuity errors : max local = 0.00086685822, sum local = 5.213343e-08, global = 2.267439e-08, cumulative = 5.8099389e-07
In manipulateMatrix: true bou: 267 int: 0
amgSolver:  Solving for p, Initial residual = 0.15912161, Final residual = 6.0217418e-08, No Iterations 23
Overset time step continuity errors : max local = 0.00036572407, sum local = 2.8028643e-08, global = -1.4330772e-08, cumulative = 5.6666312e-07
In manipulateMatrix: true bou: 267 int: 0
amgSolver:  Solving for p, Initial residual = 0.16085838, Final residual = 8.2091024e-08, No Iterations 21
Overset time step continuity errors : max local = 0.00050003002, sum local = 2.4840165e-08, global = 1.7577384e-08, cumulative = 5.8424051e-07
ExecutionTime = 2.6 s  ClockTime = 4 s

forces output:
    forces(pressure, viscous)((46.071664 219.2189 2.792659e-17) (5.9676418 0.13683459 -5.54177e-18))
    moment(pressure, viscous)((-10.960945 2.3035832 -47.692987) (-0.0068417294 0.29838209 0.35339084))

Time = 0.35

Courant Number mean: 16.879287 max: 709.0666 velocity magnitude: 207.1921
In manipulateMatrix: true bou: 267 int: 0
smoothSolver:  Solving for Ux, Initial residual = 0.16854365, Final residual = 7.6214567e-08, No Iterations 82
smoothSolver:  Solving for Uy, Initial residual = 0.18529392, Final residual = 8.6851938e-08, No Iterations 95
In manipulateMatrix: true bou: 267 int: 0
amgSolver:  Solving for p, Initial residual = 0.5126923, Final residual = 7.8440296e-08, No Iterations 25
Overset time step continuity errors : max local = 0.00061764521, sum local = 3.1176814e-08, global = -1.2820864e-08, cumulative = 5.7141964e-07
In manipulateMatrix: true bou: 267 int: 0
amgSolver:  Solving for p, Initial residual = 0.33002371, Final residual = 6.7280912e-08, No Iterations 25
Overset time step continuity errors : max local = 0.0013194945, sum local = 3.830612e-08, global = 1.633369e-08, cumulative = 5.8775333e-07
In manipulateMatrix: true bou: 267 int: 0
amgSolver:  Solving for p, Initial residual = 0.16984651, Final residual = 7.6852717e-08, No Iterations 23
Overset time step continuity errors : max local = 0.0010156629, sum local = 5.0604041e-08, global = -1.8741531e-08, cumulative = 5.690118e-07
In manipulateMatrix: true bou: 267 int: 0
amgSolver:  Solving for p, Initial residual = 0.22417241, Final residual = 7.0101738e-08, No Iterations 22
Overset time step continuity errors : max local = 0.0009647322, sum local = 2.3196163e-08, global = 1.0466455e-08, cumulative = 5.7947826e-07
ExecutionTime = 2.67 s  ClockTime = 4 s

forces output:
    forces(pressure, viscous)((48.327674 247.22663 3.5205121e-17) (5.7933037 -0.030020469 -6.8632535e-18))
    moment(pressure, viscous)((-12.361331 2.4163837 -34.903648) (0.0015010235 0.28966519 0.37216004))

Time = 0.36

Courant Number mean: 16.940434 max: 818.11551 velocity magnitude: 212.29201
In manipulateMatrix: true bou: 267 int: 0
smoothSolver:  Solving for Ux, Initial residual = 0.16887521, Final residual = 9.6156973e-08, No Iterations 92
smoothSolver:  Solving for Uy, Initial residual = 0.17199322, Final residual = 8.0501773e-08, No Iterations 87
In manipulateMatrix: true bou: 267 int: 0
amgSolver:  Solving for p, Initial residual = 0.44544981, Final residual = 4.3370635e-08, No Iterations 25
Overset time step continuity errors : max local = 0.00020004731, sum local = 1.7704176e-08, global = -7.1130454e-09, cumulative = 5.7236521e-07
In manipulateMatrix: true bou: 267 int: 0
amgSolver:  Solving for p, Initial residual = 0.13341726, Final residual = 5.6044474e-08, No Iterations 23
Overset time step continuity errors : max local = 0.001066326, sum local = 6.2490579e-08, global = 2.4870017e-08, cumulative = 5.9723523e-07
In manipulateMatrix: true bou: 267 int: 0
amgSolver:  Solving for p, Initial residual = 0.19605921, Final residual = 7.8420435e-08, No Iterations 19
Overset time step continuity errors : max local = 0.00065536301, sum local = 3.4516473e-08, global = -9.13232e-09, cumulative = 5.8810291e-07
In manipulateMatrix: true bou: 267 int: 0
amgSolver:  Solving for p, Initial residual = 0.19580899, Final residual = 7.7944457e-08, No Iterations 21
Overset time step continuity errors : max local = 0.00042714545, sum local = 2.4582813e-08, global = 1.4802329e-08, cumulative = 6.0290524e-07
ExecutionTime = 2.74 s  ClockTime = 4 s

forces output:
    forces(pressure, viscous)((49.155713 260.55789 3.2558328e-17) (5.9018065 0.26773984 -3.7359896e-18))
    moment(pressure, viscous)((-13.027894 2.4577857 -16.351519) (-0.013386992 0.29509032 0.47976527))

Time = 0.37

Courant Number mean: 17.04915 max: 868.15215 velocity magnitude: 228.70939
In manipulateMatrix: true bou: 267 int: 0
smoothSolver:  Solving for Ux, Initial residual = 0.19266485, Final residual = 8.8508268e-08, No Iterations 89
smoothSolver:  Solving for Uy, Initial residual = 0.18122333, Final residual = 9.88032e-08, No Iterations 101
In manipulateMatrix: true bou: 267 int: 0
amgSolver:  Solving for p, Initial residual = 0.51843267, Final residual = 6.8786698e-08, No Iterations 21
Overset time step continuity errors : max local = 0.00012314949, sum local = 3.1856084e-08, global = -1.1594974e-08, cumulative = 5.9131026e-07
In manipulateMatrix: true bou: 267 int: 0
amgSolver:  Solving for p, Initial residual = 0.13877106, Final residual = 4.6652089e-08, No Iterations 22
Overset time step continuity errors : max local = 0.0013591197, sum local = 8.2522023e-08, global = 2.5069603e-08, cumulative = 6.1637987e-07
In manipulateMatrix: true bou: 267 int: 0
amgSolver:  Solving for p, Initial residual = 0.15741112, Final residual = 3.6009961e-08, No Iterations 19
Overset time step continuity errors : max local = 0.0014480681, sum local = 3.5628876e-08, global = 1.204068e-08, cumulative = 6.2842055e-07
In manipulateMatrix: true bou: 267 int: 0
amgSolver:  Solving for p, Initial residual = 0.22229959, Final residual = 4.1195771e-08, No Iterations 17
Overset time step continuity errors : max local = 0.00022136425, sum local = 1.8664533e-08, global = -8.0336047e-09, cumulative = 6.2038694e-07
ExecutionTime = 2.81 s  ClockTime = 4 s

forces output:
    forces(pressure, viscous)((56.383514 297.35007 5.2733608e-17) (5.1431779 0.14114676 -4.9496737e-18))
    moment(pressure, viscous)((-14.867503 2.8191757 7.0700538) (-0.0070573378 0.2571589 0.40807889))

Time = 0.38

Courant Number mean: 17.015948 max: 924.2 velocity magnitude: 269.81845
In manipulateMatrix: true bou: 267 int: 0
smoothSolver:  Solving for Ux, Initial residual = 0.23841242, Final residual = 9.4981695e-08, No Iterations 91
smoothSolver:  Solving for Uy, Initial residual = 0.24476994, Final residual = 9.6302293e-08, No Iterations 103
In manipulateMatrix: true bou: 267 int: 0
amgSolver:  Solving for p, Initial residual = 0.6527107, Final residual = 8.3567709e-08, No Iterations 23
Overset time step continuity errors : max local = 0.00067562753, sum local = 6.6611054e-08, global = -7.6886763e-09, cumulative = 6.1269827e-07
In manipulateMatrix: true bou: 267 int: 0
amgSolver:  Solving for p, Initial residual = 0.18094492, Final residual = 8.7183394e-08, No Iterations 21
Overset time step continuity errors : max local = 0.0052327182, sum local = 2.0601407e-07, global = 3.5909705e-08, cumulative = 6.4860797e-07
In manipulateMatrix: true bou: 267 int: 0
amgSolver:  Solving for p, Initial residual = 0.219807, Final residual = 6.216799e-08, No Iterations 20
Overset time step continuity errors : max local = 0.00068571583, sum local = 5.440513e-08, global = -2.1581117e-08, cumulative = 6.2702686e-07
In manipulateMatrix: true bou: 267 int: 0
amgSolver:  Solving for p, Initial residual = 0.23569661, Final residual = 6.8303195e-08, No Iterations 21
Overset time step continuity errors : max local = 0.00033037657, sum local = 3.2188166e-08, global = 1.6185398e-08, cumulative = 6.4321225e-07
ExecutionTime = 2.89 s  ClockTime = 4 s

forces output:
    forces(pressure, viscous)((63.224258 327.85541 5.9096191e-17) (4.9190477 1.3967841 -4.0739937e-18))
    moment(pressure, viscous)((-16.392771 3.1612129 40.299451) (-0.069839205 0.24595239 1.3245204))

Time = 0.39

Courant Number mean: 17.11765 max: 1059.9094 velocity magnitude: 264.97743
In manipulateMatrix: true bou: 267 int: 0
smoothSolver:  Solving for Ux, Initial residual = 0.23887426, Final residual = 9.5843752e-08, No Iterations 136
smoothSolver:  Solving for Uy, Initial residual = 0.25166015, Final residual = 9.1606386e-08, No Iterations 115
In manipulateMatrix: true bou: 267 int: 0
amgSolver:  Solving for p, Initial residual = 0.54847869, Final residual = 8.6360025e-08, No Iterations 26
Overset time step continuity errors : max local = 0.00071766252, sum local = 4.957518e-08, global = -1.4432345e-08, cumulative = 6.2877991e-07
In manipulateMatrix: true bou: 267 int: 0
amgSolver:  Solving for p, Initial residual = 0.13090066, Final residual = 8.9671325e-08, No Iterations 24
Overset time step continuity errors : max local = 0.0048025037, sum local = 1.7342017e-07, global = 5.0309551e-08, cumulative = 6.7908946e-07
In manipulateMatrix: true bou: 267 int: 0
amgSolver:  Solving for p, Initial residual = 0.21945652, Final residual = 7.5255711e-08, No Iterations 23
Overset time step continuity errors : max local = 0.00093480923, sum local = 5.1792608e-08, global = -2.2076141e-08, cumulative = 6.5701332e-07
In manipulateMatrix: true bou: 267 int: 0
amgSolver:  Solving for p, Initial residual = 0.26999704, Final residual = 8.9114047e-08, No Iterations 20
Overset time step continuity errors : max local = 0.0011899358, sum local = 4.3599731e-08, global = 3.1134031e-08, cumulative = 6.8814735e-07
ExecutionTime = 2.97 s  ClockTime = 4 s

forces output:
    forces(pressure, viscous)((124.88857 734.38599 1.3117773e-16) (2.9630604 0.5198837 2.1012651e-19))
    moment(pressure, viscous)((-36.719299 6.2444286 328.68762) (-0.025994185 0.14815302 0.51756933))

Time = 0.4

Courant Number mean: 17.172551 max: 1890.65 velocity magnitude: 659.6158
In manipulateMatrix: true bou: 267 int: 0
smoothSolver:  Solving for Ux, Initial residual = 0.45380475, Final residual = 9.878184e-08, No Iterations 258
smoothSolver:  Solving for Uy, Initial residual = 0.35186653, Final residual = 9.8163339e-08, No Iterations 276
In manipulateMatrix: true bou: 267 int: 0
amgSolver:  Solving for p, Initial residual = 0.76879745, Final residual = 7.1978547e-08, No Iterations 26
Overset time step continuity errors : max local = 0.00073458581, sum local = 8.8096858e-08, global = -4.4974136e-08, cumulative = 6.4317321e-07
In manipulateMatrix: true bou: 267 int: 0
amgSolver:  Solving for p, Initial residual = 0.21387915, Final residual = 7.2674546e-08, No Iterations 24
Overset time step continuity errors : max local = 0.0058386029, sum local = 2.6745821e-07, global = 1.3283224e-07, cumulative = 7.7600546e-07
In manipulateMatrix: true bou: 267 int: 0
amgSolver:  Solving for p, Initial residual = 0.19406328, Final residual = 6.4122145e-08, No Iterations 23
Overset time step continuity errors : max local = 0.0005272402, sum local = 1.1054815e-07, global = -5.2028518e-08, cumulative = 7.2397694e-07
In manipulateMatrix: true bou: 267 int: 0
amgSolver:  Solving for p, Initial residual = 0.23673323, Final residual = 8.4102442e-08, No Iterations 21
Overset time step continuity errors : max local = 0.00097728832, sum local = 7.5903251e-08, global = 3.2834371e-08, cumulative = 7.5681131e-07
ExecutionTime = 3.07 s  ClockTime = 5 s

forces output:
    forces(pressure, viscous)((58.491157 8.923861 6.1895085e-17) (1.2905811 3.2938675 -1.998643e-18))
    moment(pressure, viscous)((-0.44619305 2.9245578 -115.77341) (-0.16469337 0.064529056 2.4832036))

Time = 0.41

Courant Number mean: 17.924468 max: 2168.9586 velocity magnitude: 692.01926
In manipulateMatrix: true bou: 267 int: 0
smoothSolver:  Solving for Ux, Initial residual = 0.46215387, Final residual = 9.9176179e-08, No Iterations 170
smoothSolver:  Solving for Uy, Initial residual = 0.48018842, Final residual = 9.4195927e-08, No Iterations 167
In manipulateMatrix: true bou: 267 int: 0
amgSolver:  Solving for p, Initial residual = 0.63444263, Final residual = 7.4106717e-08, No Iterations 24
Overset time step continuity errors : max local = 0.00086139254, sum local = 7.9561893e-08, global = -5.2236326e-08, cumulative = 7.0457498e-07
In manipulateMatrix: true bou: 267 int: 0
amgSolver:  Solving for p, Initial residual = 0.25370282, Final residual = 8.290521e-08, No Iterations 20
Overset time step continuity errors : max local = 0.0061621451, sum local = 1.8338996e-07, global = -5.3552275e-08, cumulative = 6.5102271e-07
In manipulateMatrix: true bou: 267 int: 0
amgSolver:  Solving for p, Initial residual = 0.31023214, Final residual = 9.3690782e-08, No Iterations 23
Overset time step continuity errors : max local = 0.00034681275, sum local = 7.1023483e-08, global = -5.8827682e-08, cumulative = 5.9219503e-07
In manipulateMatrix: true bou: 267 int: 0
amgSolver:  Solving for p, Initial residual = 0.25860347, Final residual = 8.9585209e-08, No Iterations 23
Overset time step continuity errors : max local = 0.00056311345, sum local = 4.5738189e-08, global = -3.0885282e-08, cumulative = 5.6130975e-07
ExecutionTime = 3.19 s  ClockTime = 5 s

forces output:
    forces(pressure, viscous)((152.46984 750.95388 2.2796544e-16) (8.1821875 -1.7500771 -4.9564987e-18))
    moment(pressure, viscous)((-37.547694 7.6234919 342.64694) (0.087503855 0.40910937 -0.43280147))

Time = 0.42

Courant Number mean: 16.807939 max: 648.63941 velocity magnitude: 180.779
In manipulateMatrix: true bou: 267 int: 0
smoothSolver:  Solving for Ux, Initial residual = 0.41432738, Final residual = 7.2349896e-08, No Iterations 92
smoothSolver:  Solving for Uy, Initial residual = 0.42459566, Final residual = 9.723875e-08, No Iterations 98
In manipulateMatrix: true bou: 267 int: 0
amgSolver:  Solving for p, Initial residual = 0.82826687, Final residual = 2.2629573e-08, No Iterations 26
Overset time step continuity errors : max local = 0.00026451581, sum local = 2.4612299e-08, global = 5.7431052e-09, cumulative = 5.6705285e-07
In manipulateMatrix: true bou: 267 int: 0
amgSolver:  Solving for p, Initial residual = 0.3063472, Final residual = 5.5239844e-08, No Iterations 24
Overset time step continuity errors : max local = 0.0016009447, sum local = 1.1011939e-07, global = 4.1026334e-08, cumulative = 6.0807918e-07
In manipulateMatrix: true bou: 267 int: 0
amgSolver:  Solving for p, Initial residual = 0.33223936, Final residual = 7.8984635e-08, No Iterations 22
Overset time step continuity errors : max local = 0.0021408223, sum local = 5.8551462e-08, global = -9.5794886e-09, cumulative = 5.984997e-07
In manipulateMatrix: true bou: 267 int: 0
amgSolver:  Solving for p, Initial residual = 0.25642863, Final residual = 3.9390854e-08, No Iterations 23
Overset time step continuity errors : max local = 0.00062061199, sum local = 2.2981403e-08, global = -6.9002252e-09, cumulative = 5.9159947e-07
ExecutionTime = 3.28 s  ClockTime = 5 s

forces output:
    forces(pressure, viscous)((55.140641 133.69851 1.6277978e-17) (7.4919525 1.2417661 -2.1228555e-18))
    moment(pressure, viscous)((-6.6849255 2.757032 -92.693764) (-0.062088303 0.37459762 1.0012578))

Time = 0.43

Courant Number mean: 17.143702 max: 650.60763 velocity magnitude: 273.17507
In manipulateMatrix: true bou: 267 int: 0
smoothSolver:  Solving for Ux, Initial residual = 0.3472346, Final residual = 7.6977249e-08, No Iterations 89
smoothSolver:  Solving for Uy, Initial residual = 0.38543507, Final residual = 3.8793825e-08, No Iterations 94
In manipulateMatrix: true bou: 267 int: 0
amgSolver:  Solving for p, Initial residual = 0.78093423, Final residual = 1.1747708e-07, No Iterations 100
Overset time step continuity errors : max local = 7.0083784e-11, sum local = 9.8958164e-08, global = -9.8958164e-08, cumulative = 4.9264131e-07
In manipulateMatrix: true bou: 267 int: 0
amgSolver:  Solving for p, Initial residual = 0.18729896, Final residual = 3.0546342e-08, No Iterations 20
Overset time step continuity errors : max local = 0.00044263815, sum local = 6.4647412e-08, global = -3.4922376e-08, cumulative = 4.5771893e-07
In manipulateMatrix: true bou: 267 int: 0
amgSolver:  Solving for p, Initial residual = 0.2233618, Final residual = 7.2783667e-08, No Iterations 20
Overset time step continuity errors : max local = 0.00044036995, sum local = 7.1097333e-08, global = -1.0918958e-08, cumulative = 4.4679997e-07
In manipulateMatrix: true bou: 267 int: 0
amgSolver:  Solving for p, Initial residual = 0.28791362, Final residual = 8.7790565e-08, No Iterations 21
Overset time step continuity errors : max local = 0.0008669102, sum local = 3.9811527e-08, global = -5.5598447e-09, cumulative = 4.4124013e-07
ExecutionTime = 3.43 s  ClockTime = 5 s

forces output:
    forces(pressure, viscous)((91.326798 470.99164 1.0459077e-16) (7.074325 -1.1103749 -6.9561116e-18))
    moment(pressure, viscous)((-23.549582 4.5663399 94.787234) (0.055518746 0.35371625 0.0019545347))

Time = 0.44

Courant Number mean: 16.946265 max: 728.94891 velocity magnitude: 205.74438
In manipulateMatrix: true bou: 267 int: 0
smoothSolver:  Solving for Ux, Initial residual = 0.25486076, Final residual = 6.7460671e-08, No Iterations 86
smoothSolver:  Solving for Uy, Initial residual = 0.26317126, Final residual = 9.0794405e-08, No Iterations 95
In manipulateMatrix: true bou: 267 int: 0
amgSolver:  Solving for p, Initial residual = 0.69280913, Final residual = 9.6105442e-08, No Iterations 26
Overset time step continuity errors : max local = 0.00061888446, sum local = 6.1740475e-08, global = -2.2766658e-08, cumulative = 4.1847347e-07
In manipulateMatrix: true bou: 267 int: 0
amgSolver:  Solving for p, Initial residual = 0.17427642, Final residual = 6.9342515e-08, No Iterations 21
Overset time step continuity errors : max local = 0.0021603024, sum local = 1.2005251e-07, global = 5.045214e-08, cumulative = 4.6892561e-07
In manipulateMatrix: true bou: 267 int: 0
amgSolver:  Solving for p, Initial residual = 0.21486968, Final residual = 5.0778913e-08, No Iterations 18
Overset time step continuity errors : max local = 0.00016718335, sum local = 3.8188997e-08, global = -1.1918348e-08, cumulative = 4.5700726e-07
In manipulateMatrix: true bou: 267 int: 0
amgSolver:  Solving for p, Initial residual = 0.32276579, Final residual = 7.4237879e-08, No Iterations 21
[...]
In manipulateMatrix: true bou: 267 int: 0
amgSolver:  Solving for p, Initial residual = 0.18739047, Final residual = 4.9990365e-08, No Iterations 22
Overset time step continuity errors : max local = 0.00079114625, sum local = 2.5170645e-08, global = 6.3301416e-09, cumulative = 2.3178531e-06
In manipulateMatrix: true bou: 267 int: 0
amgSolver:  Solving for p, Initial residual = 0.13791968, Final residual = 7.1862312e-08, No Iterations 19
Overset time step continuity errors : max local = 0.0011947518, sum local = 3.2510309e-08, global = 1.238748e-08, cumulative = 2.3302406e-06
ExecutionTime = 11.73 s  ClockTime = 13 s

forces output:
    forces(pressure, viscous)((67.261442 562.16518 1.4952503e-17) (7.2422297 -0.24704022 -4.556498e-18))
    moment(pressure, viscous)((-28.108259 3.3630721 134.32507) (0.012352011 0.36211148 0.13468413))

Time = 1.44

Courant Number mean: 17.104481 max: 570.3709 velocity magnitude: 207.86474
In manipulateMatrix: true bou: 267 int: 0
smoothSolver:  Solving for Ux, Initial residual = 0.24253096, Final residual = 8.0995156e-08, No Iterations 89
smoothSolver:  Solving for Uy, Initial residual = 0.21405953, Final residual = 5.8449149e-08, No Iterations 89
In manipulateMatrix: true bou: 267 int: 0
amgSolver:  Solving for p, Initial residual = 0.47471544, Final residual = 9.4058365e-08, No Iterations 23
Overset time step continuity errors : max local = 0.00062135994, sum local = 5.0052335e-08, global = 1.7670413e-08, cumulative = 2.347911e-06
In manipulateMatrix: true bou: 267 int: 0
amgSolver:  Solving for p, Initial residual = 0.098274271, Final residual = 9.4757842e-08, No Iterations 20
Overset time step continuity errors : max local = 0.0015470266, sum local = 1.6069897e-07, global = -3.4349068e-08, cumulative = 2.3135619e-06
In manipulateMatrix: true bou: 267 int: 0
amgSolver:  Solving for p, Initial residual = 0.22278387, Final residual = 5.5226357e-08, No Iterations 23
Overset time step continuity errors : max local = 0.00014376698, sum local = 1.7698115e-08, global = -1.2409352e-08, cumulative = 2.3011525e-06
In manipulateMatrix: true bou: 267 int: 0
amgSolver:  Solving for p, Initial residual = 0.16511592, Final residual = 6.0004998e-08, No Iterations 19
Overset time step continuity errors : max local = 0.00030617957, sum local = 1.4749821e-08, global = 6.5264394e-09, cumulative = 2.307679e-06
ExecutionTime = 11.81 s  ClockTime = 13 s

forces output:
    forces(pressure, viscous)((72.579043 530.47769 2.7597871e-17) (5.957706 0.038553766 -1.1735392e-17))
    moment(pressure, viscous)((-26.523884 3.6289522 98.990031) (-0.0019276883 0.2978853 0.28796206))

Time = 1.45

Courant Number mean: 16.860492 max: 421.39261 velocity magnitude: 212.43654
In manipulateMatrix: true bou: 267 int: 0
smoothSolver:  Solving for Ux, Initial residual = 0.12526818, Final residual = 5.2220487e-08, No Iterations 86
smoothSolver:  Solving for Uy, Initial residual = 0.14073121, Final residual = 5.0229764e-08, No Iterations 89
In manipulateMatrix: true bou: 267 int: 0
amgSolver:  Solving for p, Initial residual = 0.41543086, Final residual = 5.8040245e-08, No Iterations 21
Overset time step continuity errors : max local = 0.00035090689, sum local = 1.8460133e-08, global = -7.4383357e-09, cumulative = 2.3002406e-06
In manipulateMatrix: true bou: 267 int: 0
amgSolver:  Solving for p, Initial residual = 0.33748187, Final residual = 3.7603545e-08, No Iterations 20
Overset time step continuity errors : max local = 0.0013405108, sum local = 1.0503807e-08, global = 2.6027643e-09, cumulative = 2.3028434e-06
In manipulateMatrix: true bou: 267 int: 0
amgSolver:  Solving for p, Initial residual = 0.12097702, Final residual = 3.8403798e-08, No Iterations 22
Overset time step continuity errors : max local = 0.00018657326, sum local = 1.4581902e-08, global = -4.4195937e-09, cumulative = 2.2984238e-06
In manipulateMatrix: true bou: 267 int: 0
amgSolver:  Solving for p, Initial residual = 0.11735517, Final residual = 9.7873613e-08, No Iterations 20
Overset time step continuity errors : max local = 0.0033631504, sum local = 2.3815718e-08, global = 1.376184e-08, cumulative = 2.3121857e-06
ExecutionTime = 11.89 s  ClockTime = 13 s

forces output:
    forces(pressure, viscous)((82.0796 567.47297 3.6289792e-17) (5.2894878 0.19686353 -1.5226967e-17))
    moment(pressure, viscous)((-28.373648 4.10398 122.62992) (-0.0098431764 0.26447439 0.39588557))

Time = 1.46

Courant Number mean: 16.925559 max: 510.30612 velocity magnitude: 204.13576
In manipulateMatrix: true bou: 267 int: 0
smoothSolver:  Solving for Ux, Initial residual = 0.073564726, Final residual = 8.942694e-08, No Iterations 89
smoothSolver:  Solving for Uy, Initial residual = 0.076043674, Final residual = 9.2186976e-08, No Iterations 96
In manipulateMatrix: true bou: 267 int: 0
amgSolver:  Solving for p, Initial residual = 0.34450044, Final residual = 3.1591885e-08, No Iterations 24
Overset time step continuity errors : max local = 5.062653e-05, sum local = 8.3998066e-09, global = -4.366153e-09, cumulative = 2.3078195e-06
In manipulateMatrix: true bou: 267 int: 0
amgSolver:  Solving for p, Initial residual = 0.22048103, Final residual = 6.8000275e-08, No Iterations 23
Overset time step continuity errors : max local = 0.00035926368, sum local = 2.2628822e-08, global = 1.0138271e-08, cumulative = 2.3179578e-06
In manipulateMatrix: true bou: 267 int: 0
amgSolver:  Solving for p, Initial residual = 0.1191741, Final residual = 5.1128953e-08, No Iterations 19
Overset time step continuity errors : max local = 0.00021598872, sum local = 1.9750924e-08, global = -7.0938006e-09, cumulative = 2.310864e-06
In manipulateMatrix: true bou: 267 int: 0
amgSolver:  Solving for p, Initial residual = 0.11381642, Final residual = 9.8911533e-08, No Iterations 20
Overset time step continuity errors : max local = 0.00075184981, sum local = 2.8200518e-08, global = 1.0046873e-08, cumulative = 2.3209109e-06
ExecutionTime = 11.98 s  ClockTime = 14 s

forces output:
    forces(pressure, viscous)((75.119063 528.8885 3.0652872e-17) (5.2338783 0.29449928 -5.6722638e-18))
    moment(pressure, viscous)((-26.444425 3.7559531 106.82422) (-0.014724964 0.26169392 0.42044513))

Time = 1.47

Courant Number mean: 17.004861 max: 606.65072 velocity magnitude: 208.00398
In manipulateMatrix: true bou: 267 int: 0
smoothSolver:  Solving for Ux, Initial residual = 0.09726336, Final residual = 9.7393844e-08, No Iterations 92
smoothSolver:  Solving for Uy, Initial residual = 0.1048352, Final residual = 9.0407646e-08, No Iterations 87
In manipulateMatrix: true bou: 267 int: 0
amgSolver:  Solving for p, Initial residual = 0.38708948, Final residual = 9.7831523e-08, No Iterations 21
Overset time step continuity errors : max local = 0.0004051966, sum local = 3.7331135e-08, global = 3.5388354e-09, cumulative = 2.3244497e-06
In manipulateMatrix: true bou: 267 int: 0
amgSolver:  Solving for p, Initial residual = 0.11270532, Final residual = 8.4454748e-08, No Iterations 19
Overset time step continuity errors : max local = 0.0027948478, sum local = 1.0116876e-07, global = 1.8264886e-08, cumulative = 2.3427146e-06
In manipulateMatrix: true bou: 267 int: 0
amgSolver:  Solving for p, Initial residual = 0.1471162, Final residual = 9.3238229e-08, No Iterations 18
Overset time step continuity errors : max local = 0.00095636003, sum local = 4.6655753e-08, global = 2.7368271e-09, cumulative = 2.3454514e-06
In manipulateMatrix: true bou: 267 int: 0
amgSolver:  Solving for p, Initial residual = 0.1500139, Final residual = 7.7213125e-08, No Iterations 18
Overset time step continuity errors : max local = 0.00091130902, sum local = 2.515987e-08, global = 1.2263254e-08, cumulative = 2.3577147e-06
ExecutionTime = 12.06 s  ClockTime = 14 s

forces output:
    forces(pressure, viscous)((73.133727 475.58994 4.4631534e-17) (4.7582564 0.33023154 -4.4798692e-18))
    moment(pressure, viscous)((-23.779497 3.6566863 82.733334) (-0.016511577 0.23791282 0.48918259))

Time = 1.48

Courant Number mean: 17.00432 max: 713.79733 velocity magnitude: 201.87089
In manipulateMatrix: true bou: 267 int: 0
smoothSolver:  Solving for Ux, Initial residual = 0.13395406, Final residual = 9.617886e-08, No Iterations 106
smoothSolver:  Solving for Uy, Initial residual = 0.15022679, Final residual = 9.9381957e-08, No Iterations 98
In manipulateMatrix: true bou: 267 int: 0
amgSolver:  Solving for p, Initial residual = 0.49589515, Final residual = 6.2742857e-08, No Iterations 21
Overset time step continuity errors : max local = 0.00041793817, sum local = 3.061948e-08, global = -1.220969e-08, cumulative = 2.345505e-06
In manipulateMatrix: true bou: 267 int: 0
amgSolver:  Solving for p, Initial residual = 0.14009642, Final residual = 7.8385967e-08, No Iterations 20
Overset time step continuity errors : max local = 0.002287426, sum local = 1.1546961e-07, global = 1.6320222e-08, cumulative = 2.3618252e-06
In manipulateMatrix: true bou: 267 int: 0
amgSolver:  Solving for p, Initial residual = 0.17937422, Final residual = 3.4098068e-08, No Iterations 20
Overset time step continuity errors : max local = 0.00032900823, sum local = 1.8927003e-08, global = -2.6042326e-09, cumulative = 2.359221e-06
In manipulateMatrix: true bou: 267 int: 0
amgSolver:  Solving for p, Initial residual = 0.18495912, Final residual = 9.1166063e-08, No Iterations 21
Overset time step continuity errors : max local = 0.0011971824, sum local = 3.2406543e-08, global = 8.5817066e-09, cumulative = 2.3678027e-06
ExecutionTime = 12.14 s  ClockTime = 14 s

forces output:
    forces(pressure, viscous)((81.168662 483.20418 7.1509485e-17) (4.9033833 0.52867895 -4.4862583e-18))
    moment(pressure, viscous)((-24.160209 4.0584331 106.42802) (-0.026433948 0.24516917 0.63715516))

Time = 1.49

Courant Number mean: 17.023978 max: 772.55222 velocity magnitude: 202.93945
In manipulateMatrix: true bou: 267 int: 0
smoothSolver:  Solving for Ux, Initial residual = 0.16320642, Final residual = 9.8286063e-08, No Iterations 125
smoothSolver:  Solving for Uy, Initial residual = 0.18439437, Final residual = 9.3120956e-08, No Iterations 126
In manipulateMatrix: true bou: 267 int: 0
amgSolver:  Solving for p, Initial residual = 0.45610166, Final residual = 7.5308269e-08, No Iterations 23
Overset time step continuity errors : max local = 2.9612266e-05, sum local = 3.7744169e-08, global = -2.992981e-08, cumulative = 2.3378728e-06
In manipulateMatrix: true bou: 267 int: 0
amgSolver:  Solving for p, Initial residual = 0.12376467, Final residual = 4.6590047e-08, No Iterations 23
Overset time step continuity errors : max local = 0.0010555914, sum local = 7.812386e-08, global = 1.6346604e-08, cumulative = 2.3542195e-06
In manipulateMatrix: true bou: 267 int: 0
amgSolver:  Solving for p, Initial residual = 0.18250365, Final residual = 4.7218541e-08, No Iterations 23
Overset time step continuity errors : max local = 0.00013687331, sum local = 2.6423292e-08, global = -1.1325004e-08, cumulative = 2.3428944e-06
In manipulateMatrix: true bou: 267 int: 0
amgSolver:  Solving for p, Initial residual = 0.19642678, Final residual = 7.2223577e-08, No Iterations 23
Overset time step continuity errors : max local = 0.00033982735, sum local = 2.8710019e-08, global = 1.3605765e-08, cumulative = 2.3565002e-06
ExecutionTime = 12.25 s  ClockTime = 14 s

forces output:
    forces(pressure, viscous)((86.503858 439.66488 9.7198421e-17) (4.1875651 0.45273483 -4.8800691e-18))
    moment(pressure, viscous)((-21.983244 4.3251929 98.607646) (-0.022636742 0.20937826 0.57450877))

Time = 1.5

Courant Number mean: 17.041751 max: 893.60429 velocity magnitude: 239.98222
In manipulateMatrix: true bou: 267 int: 0
smoothSolver:  Solving for Ux, Initial residual = 0.18208312, Final residual = 9.6251389e-08, No Iterations 120
smoothSolver:  Solving for Uy, Initial residual = 0.21463156, Final residual = 9.7890625e-08, No Iterations 130
In manipulateMatrix: true bou: 267 int: 0
amgSolver:  Solving for p, Initial residual = 0.62236296, Final residual = 9.8999294e-08, No Iterations 23
Overset time step continuity errors : max local = 0.00058722456, sum local = 7.1851169e-08, global = -2.9984765e-08, cumulative = 2.3265154e-06
In manipulateMatrix: true bou: 267 int: 0
amgSolver:  Solving for p, Initial residual = 0.187146, Final residual = 9.0738669e-08, No Iterations 22
Overset time step continuity errors : max local = 0.0022868714, sum local = 1.8813433e-07, global = 4.8277555e-08, cumulative = 2.374793e-06
In manipulateMatrix: true bou: 267 int: 0
amgSolver:  Solving for p, Initial residual = 0.22751477, Final residual = 6.8056794e-08, No Iterations 19
Overset time step continuity errors : max local = 0.001384382, sum local = 4.4428082e-08, global = -1.1178357e-08, cumulative = 2.3636146e-06
In manipulateMatrix: true bou: 267 int: 0
amgSolver:  Solving for p, Initial residual = 0.19782181, Final residual = 6.9102871e-08, No Iterations 21
Overset time step continuity errors : max local = 0.00043155414, sum local = 3.1963683e-08, global = 9.7469583e-09, cumulative = 2.3733616e-06
ExecutionTime = 12.33 s  ClockTime = 14 s

forces output:
    forces(pressure, viscous)((82.929954 387.33489 1.0952749e-16) (5.0334083 0.92919296 -4.3908859e-18))
    moment(pressure, viscous)((-19.366744 4.1464977 93.602926) (-0.046459648 0.25167041 1.020232))

Time = 1.51

Courant Number mean: 17.038812 max: 961.86188 velocity magnitude: 240.46554
In manipulateMatrix: true bou: 267 int: 0
smoothSolver:  Solving for Ux, Initial residual = 0.19254254, Final residual = 8.9750141e-08, No Iterations 107
smoothSolver:  Solving for Uy, Initial residual = 0.23549831, Final residual = 9.7582885e-08, No Iterations 104
In manipulateMatrix: true bou: 267 int: 0
amgSolver:  Solving for p, Initial residual = 0.54241291, Final residual = 6.3306865e-08, No Iterations 24
Overset time step continuity errors : max local = 0.00082611235, sum local = 4.2610546e-08, global = 2.3056388e-09, cumulative = 2.3756672e-06
In manipulateMatrix: true bou: 267 int: 0
amgSolver:  Solving for p, Initial residual = 0.16122201, Final residual = 6.7356153e-08, No Iterations 23
Overset time step continuity errors : max local = 0.0011880859, sum local = 1.301729e-07, global = -5.4213211e-08, cumulative = 2.321454e-06
In manipulateMatrix: true bou: 267 int: 0
amgSolver:  Solving for p, Initial residual = 0.24913751, Final residual = 4.3015018e-08, No Iterations 26
Overset time step continuity errors : max local = 0.00027660913, sum local = 2.7962192e-08, global = 7.5420111e-09, cumulative = 2.328996e-06
In manipulateMatrix: true bou: 267 int: 0
amgSolver:  Solving for p, Initial residual = 0.30648435, Final residual = 4.7042977e-08, No Iterations 21
Overset time step continuity errors : max local = 0.00023787208, sum local = 2.3506359e-08, global = -3.6691787e-09, cumulative = 2.3253269e-06
ExecutionTime = 12.41 s  ClockTime = 14 s

forces output:
    forces(pressure, viscous)((149.49613 788.0448 1.7910979e-16) (2.1816337 0.77752583 -2.2701539e-18))
    moment(pressure, viscous)((-39.40224 7.4748067 386.1946) (-0.038876292 0.10908169 0.67585439))

Time = 1.52

Courant Number mean: 17.209742 max: 2910.2263 velocity magnitude: 1039.7739
In manipulateMatrix: true bou: 267 int: 0
smoothSolver:  Solving for Ux, Initial residual = 0.53355502, Final residual = 9.7703091e-08, No Iterations 323
smoothSolver:  Solving for Uy, Initial residual = 0.42768323, Final residual = 9.8506223e-08, No Iterations 352
In manipulateMatrix: true bou: 267 int: 0
amgSolver:  Solving for p, Initial residual = 0.80108794, Final residual = 6.7800704e-08, No Iterations 22
Overset time step continuity errors : max local = 0.00030248849, sum local = 8.9565297e-08, global = -3.2259553e-08, cumulative = 2.2930673e-06
In manipulateMatrix: true bou: 267 int: 0
amgSolver:  Solving for p, Initial residual = 0.33145344, Final residual = 4.7323619e-08, No Iterations 25
Overset time step continuity errors : max local = 0.0014170023, sum local = 1.3889368e-07, global = 4.7501027e-08, cumulative = 2.3405683e-06
In manipulateMatrix: true bou: 267 int: 0
amgSolver:  Solving for p, Initial residual = 0.21015461, Final residual = 7.2291712e-08, No Iterations 22
Overset time step continuity errors : max local = 0.00042235171, sum local = 1.2299871e-07, global = -4.5401312e-08, cumulative = 2.295167e-06
In manipulateMatrix: true bou: 267 int: 0
amgSolver:  Solving for p, Initial residual = 0.27261465, Final residual = 8.5015521e-08, No Iterations 22
Overset time step continuity errors : max local = 0.0005731291, sum local = 6.8098023e-08, global = 5.7533104e-09, cumulative = 2.3009203e-06
ExecutionTime = 12.53 s  ClockTime = 14 s

forces output:
    forces(pressure, viscous)((57.643449 -234.57736 4.2696987e-17) (3.4206587 2.232957 -6.1950436e-19))
    moment(pressure, viscous)((11.728868 2.8821725 -225.11535) (-0.11164785 0.17103294 1.8884446))

Time = 1.53

Courant Number mean: 18.389015 max: 2800.1053 velocity magnitude: 828.03501
In manipulateMatrix: true bou: 267 int: 0
smoothSolver:  Solving for Ux, Initial residual = 0.50686721, Final residual = 9.8229533e-08, No Iterations 160
smoothSolver:  Solving for Uy, Initial residual = 0.5241102, Final residual = 9.8289739e-08, No Iterations 156
In manipulateMatrix: true bou: 267 int: 0
amgSolver:  Solving for p, Initial residual = 0.68248633, Final residual = 8.124864e-08, No Iterations 27
Overset time step continuity errors : max local = 0.00095750103, sum local = 1.0362301e-07, global = 3.3390979e-08, cumulative = 2.3343113e-06
In manipulateMatrix: true bou: 267 int: 0
amgSolver:  Solving for p, Initial residual = 0.51784771, Final residual = 9.8954368e-08, No Iterations 26
Overset time step continuity errors : max local = 0.00026754981, sum local = 1.5567717e-07, global = -4.7468234e-08, cumulative = 2.2868431e-06
In manipulateMatrix: true bou: 267 int: 0
amgSolver:  Solving for p, Initial residual = 0.24505737, Final residual = 8.6467215e-08, No Iterations 22
Overset time step continuity errors : max local = 0.00020884242, sum local = 1.1040576e-07, global = -5.4998865e-08, cumulative = 2.2318442e-06
In manipulateMatrix: true bou: 267 int: 0
amgSolver:  Solving for p, Initial residual = 0.24590605, Final residual = 8.0358671e-08, No Iterations 23
Overset time step continuity errors : max local = 6.934819e-05, sum local = 5.884466e-08, global = -2.530051e-08, cumulative = 2.2065437e-06
ExecutionTime = 12.64 s  ClockTime = 14 s

forces output:
    forces(pressure, viscous)((230.78044 1093.4942 3.2943218e-16) (8.7340387 -1.8619588 -7.9069023e-18))
    moment(pressure, viscous)((-54.674712 11.539022 600.00217) (0.09309794 0.43670193 -0.32215685))

Time = 1.54

Courant Number mean: 16.855943 max: 757.64271 velocity magnitude: 215.81682
In manipulateMatrix: true bou: 267 int: 0
smoothSolver:  Solving for Ux, Initial residual = 0.56437025, Final residual = 9.4532186e-08, No Iterations 91
smoothSolver:  Solving for Uy, Initial residual = 0.56096254, Final residual = 9.4711105e-08, No Iterations 99
In manipulateMatrix: true bou: 267 int: 0
amgSolver:  Solving for p, Initial residual = 0.82221577, Final residual = 8.0977696e-08, No Iterations 27
Overset time step continuity errors : max local = 0.0034602005, sum local = 1.0335902e-07, global = 3.610829e-08, cumulative = 2.242652e-06
In manipulateMatrix: true bou: 267 int: 0
amgSolver:  Solving for p, Initial residual = 0.21884827, Final residual = 9.5937983e-08, No Iterations 22
Overset time step continuity errors : max local = 0.0033205857, sum local = 3.4129173e-07, global = -1.420613e-07, cumulative = 2.1005907e-06
In manipulateMatrix: true bou: 267 int: 0
amgSolver:  Solving for p, Initial residual = 0.26767521, Final residual = 6.7586607e-08, No Iterations 26
Overset time step continuity errors : max local = 0.00054890204, sum local = 7.7137489e-08, global = -1.8463769e-08, cumulative = 2.0821269e-06
In manipulateMatrix: true bou: 267 int: 0
