/*---------------------------------------------------------------------------*\
| =========                 |                                                 |
| \\      /  F ield         | foam-extend: Open Source CFD                    |
|  \\    /   O peration     | Version:     4.1                                |
|   \\  /    A nd           | Web:         http://www.foam-extend.org         |
|    \\/     M anipulation  | For copyright notice see file Copyright         |
\*---------------------------------------------------------------------------*/
Build  : 4.1-76ec96ae2dcb
Exec   : icoOversetFoam
Date   : Apr 06 2020
Time   : 18:40:11
Host   : "aoba"
PID    : 4107
CtrlDict : "/home/mimi/foam/mimi-4.1/run/owari/cylinder/inviscid/150ms/system/controlDict"
Case   : /home/mimi/foam/mimi-4.1/run/owari/cylinder/inviscid/150ms
nProcs : 1
sigFpe : Enabling floating point exception trapping (FOAM_SIGFPE).
allowSystemOperations : Disallowing user-supplied system call operations

// * * * * * * * * * * * * * * * * * * * * * * * * * * * * * * * * * * * * * //
Create time

Create mesh for time = 0


PISO: Operating solver in PISO mode

Creating oversetMesh
Selecting overset fringe type overlap
Selecting overset fringe type faceCells
Found 1 active overset interpolation schemes.

Selecting overset interpolation type inverseDistance
Updating iteration for overset region: volume
Region internal: 96 triangles in hole cutting
Region volume: 0 triangles in hole cutting
Overlap fringe iteration: 1 for region: volume
Cumulative suitable pairs: 44, total number of pairs: 44 (100%)
Converted 0 acceptors to holes.
Finished assembling overlap fringe.
Updating iteration for overset region: internal
Number of acceptor cells: 140
Number of donor cells: 140
Number of hole cells: 160
Checking donor-acceptor assembly
Reading transportProperties

Reading field p

Reading field U

Reading/calculating face flux field phi

Reading field rAU if present


Starting time loop

Time = 0.0005

Courant Number mean: 1.4333571 max: 12.912978 velocity magnitude: 305.8811
In manipulateMatrix: true bou: 258 int: 0
smoothSolver:  Solving for Ux, Initial residual = 0.25867791, Final residual = 9.8601943e-08, No Iterations 55
smoothSolver:  Solving for Uy, Initial residual = 0.2884243, Final residual = 9.8934871e-08, No Iterations 55
In manipulateMatrix: true bou: 258 int: 0
amgSolver:  Solving for p, Initial residual = 0.99908275, Final residual = 8.5153857e-08, No Iterations 64
Overset time step continuity errors : max local = 5.6584398e-06, sum local = 1.1896147e-09, global = -9.1805303e-10, cumulative = -9.1805303e-10
In manipulateMatrix: true bou: 258 int: 0
amgSolver:  Solving for p, Initial residual = 0.22553304, Final residual = 8.2916385e-08, No Iterations 56
Overset time step continuity errors : max local = 0.0018119088, sum local = 4.4927059e-09, global = 3.4668583e-09, cumulative = 2.5488052e-09
In manipulateMatrix: true bou: 258 int: 0
amgSolver:  Solving for p, Initial residual = 0.24244619, Final residual = 8.561246e-08, No Iterations 57
Overset time step continuity errors : max local = 0.0007720327, sum local = 1.9135358e-09, global = 1.4768886e-09, cumulative = 4.0256938e-09
In manipulateMatrix: true bou: 258 int: 0
amgSolver:  Solving for p, Initial residual = 0.24287293, Final residual = 8.7653524e-08, No Iterations 54
Overset time step continuity errors : max local = 6.6557123e-06, sum local = 1.3964796e-09, global = -1.0778146e-09, cumulative = 2.9478793e-09
ExecutionTime = 0.6 s  ClockTime = 0 s

forces output:
    forces(pressure, viscous)((101.18169 -1.1094775 0) (0 0 0))
    moment(pressure, viscous)((0.055473876 5.0590845 1.5915454e-08) (0 0 0))

forceCoeffs output:
    Cd = 202.36338
    Cl = -2.218955
    Cm = 0

Time = 0.001

Courant Number mean: 1.4339426 max: 18.146112 velocity magnitude: 264.93593
In manipulateMatrix: true bou: 258 int: 0
smoothSolver:  Solving for Ux, Initial residual = 0.08583248, Final residual = 7.8633203e-08, No Iterations 51
smoothSolver:  Solving for Uy, Initial residual = 0.094890504, Final residual = 8.9536892e-08, No Iterations 50
In manipulateMatrix: true bou: 258 int: 0
amgSolver:  Solving for p, Initial residual = 0.38274218, Final residual = 7.9595409e-08, No Iterations 55
Overset time step continuity errors : max local = 0.00059988642, sum local = 1.3920755e-09, global = 1.2973776e-09, cumulative = 4.2452568e-09
In manipulateMatrix: true bou: 258 int: 0
amgSolver:  Solving for p, Initial residual = 0.27827051, Final residual = 7.9464759e-08, No Iterations 51
Overset time step continuity errors : max local = 1.4737277e-05, sum local = 1.4787187e-09, global = -1.3748177e-09, cumulative = 2.8704391e-09
In manipulateMatrix: true bou: 258 int: 0
amgSolver:  Solving for p, Initial residual = 0.12768274, Final residual = 9.5700349e-08, No Iterations 45
Overset time step continuity errors : max local = 0.00063142825, sum local = 1.4750335e-09, global = 1.3737814e-09, cumulative = 4.2442205e-09
In manipulateMatrix: true bou: 258 int: 0
amgSolver:  Solving for p, Initial residual = 0.092823732, Final residual = 9.2963086e-08, No Iterations 36
Overset time step continuity errors : max local = 2.000788e-05, sum local = 1.4000988e-09, global = -1.2924942e-09, cumulative = 2.9517263e-09
ExecutionTime = 1 s  ClockTime = 1 s

forces output:
    forces(pressure, viscous)((119.68175 -0.67601717 0) (0 0 0))
    moment(pressure, viscous)((0.033800859 5.9840874 1.7606171e-09) (0 0 0))

forceCoeffs output:
    Cd = 239.3635
    Cl = -1.3520343
    Cm = 0

Time = 0.0015

Courant Number mean: 1.4325767 max: 17.034223 velocity magnitude: 271.27992
In manipulateMatrix: true bou: 258 int: 0
smoothSolver:  Solving for Ux, Initial residual = 0.044621747, Final residual = 8.9469791e-08, No Iterations 48
smoothSolver:  Solving for Uy, Initial residual = 0.047230042, Final residual = 8.1676967e-08, No Iterations 48
In manipulateMatrix: true bou: 258 int: 0
amgSolver:  Solving for p, Initial residual = 0.14382837, Final residual = 9.5635613e-08, No Iterations 53
Overset time step continuity errors : max local = 0.00065244748, sum local = 1.4583876e-09, global = 1.3438959e-09, cumulative = 4.2956222e-09
In manipulateMatrix: true bou: 258 int: 0
amgSolver:  Solving for p, Initial residual = 0.11746755, Final residual = 9.8728322e-08, No Iterations 52
Overset time step continuity errors : max local = 1.5072678e-05, sum local = 1.3058286e-09, global = -1.2034693e-09, cumulative = 3.0921529e-09
In manipulateMatrix: true bou: 258 int: 0
amgSolver:  Solving for p, Initial residual = 0.045459499, Final residual = 7.8196845e-08, No Iterations 39
Overset time step continuity errors : max local = 0.00052986646, sum local = 1.1612136e-09, global = 1.0752334e-09, cumulative = 4.1673863e-09
In manipulateMatrix: true bou: 258 int: 0
amgSolver:  Solving for p, Initial residual = 0.032606682, Final residual = 8.3781952e-08, No Iterations 40
Overset time step continuity errors : max local = 1.382492e-05, sum local = 1.2426623e-09, global = -1.1447849e-09, cumulative = 3.0226015e-09
ExecutionTime = 1.33 s  ClockTime = 1 s

forces output:
    forces(pressure, viscous)((131.09172 -0.37176328 0) (0 0 0))
    moment(pressure, viscous)((0.018588164 6.5545861 4.5670621e-09) (0 0 0))

forceCoeffs output:
    Cd = 262.18345
    Cl = -0.74352655
    Cm = 0

Time = 0.002

Courant Number mean: 1.4311114 max: 15.581723 velocity magnitude: 271.97442
In manipulateMatrix: true bou: 258 int: 0
smoothSolver:  Solving for Ux, Initial residual = 0.028050125, Final residual = 7.5555547e-08, No Iterations 47
smoothSolver:  Solving for Uy, Initial residual = 0.027750113, Final residual = 9.3740789e-08, No Iterations 46
In manipulateMatrix: true bou: 258 int: 0
amgSolver:  Solving for p, Initial residual = 0.079137121, Final residual = 9.4329344e-08, No Iterations 49
Overset time step continuity errors : max local = 0.00066310478, sum local = 1.4182408e-09, global = 1.3063445e-09, cumulative = 4.3289459e-09
In manipulateMatrix: true bou: 258 int: 0
amgSolver:  Solving for p, Initial residual = 0.052558131, Final residual = 8.48975e-08, No Iterations 48
Overset time step continuity errors : max local = 1.3541126e-05, sum local = 1.1857856e-09, global = -1.0919764e-09, cumulative = 3.2369695e-09
In manipulateMatrix: true bou: 258 int: 0
amgSolver:  Solving for p, Initial residual = 0.021158683, Final residual = 9.2749207e-08, No Iterations 37
Overset time step continuity errors : max local = 0.00063600968, sum local = 1.3644769e-09, global = 1.2556131e-09, cumulative = 4.4925826e-09
In manipulateMatrix: true bou: 258 int: 0
amgSolver:  Solving for p, Initial residual = 0.014978946, Final residual = 8.9749349e-08, No Iterations 38
Overset time step continuity errors : max local = 1.5063785e-05, sum local = 1.3203765e-09, global = -1.2159086e-09, cumulative = 3.276674e-09
ExecutionTime = 1.75 s  ClockTime = 1 s

forces output:
    forces(pressure, viscous)((138.08879 -0.51413504 0) (0 0 0))
    moment(pressure, viscous)((0.025706752 6.9044396 7.1159974e-09) (0 0 0))

forceCoeffs output:
    Cd = 276.17759
    Cl = -1.0282701
    Cm = 0

Time = 0.0025

Courant Number mean: 1.4302166 max: 14.424086 velocity magnitude: 274.31377
In manipulateMatrix: true bou: 258 int: 0
smoothSolver:  Solving for Ux, Initial residual = 0.021310303, Final residual = 9.5284449e-08, No Iterations 45
smoothSolver:  Solving for Uy, Initial residual = 0.020598898, Final residual = 9.079244e-08, No Iterations 45
In manipulateMatrix: true bou: 258 int: 0
amgSolver:  Solving for p, Initial residual = 0.050895815, Final residual = 9.1731473e-08, No Iterations 51
Overset time step continuity errors : max local = 0.00067648238, sum local = 1.357168e-09, global = 9.7275938e-10, cumulative = 4.2494334e-09
In manipulateMatrix: true bou: 258 int: 0
amgSolver:  Solving for p, Initial residual = 0.031748577, Final residual = 9.1125158e-08, No Iterations 51
Overset time step continuity errors : max local = 6.3251803e-06, sum local = 1.2973813e-09, global = -9.2992891e-10, cumulative = 3.3195045e-09
In manipulateMatrix: true bou: 258 int: 0
amgSolver:  Solving for p, Initial residual = 0.012488166, Final residual = 8.6158701e-08, No Iterations 39
Overset time step continuity errors : max local = 0.00062455381, sum local = 1.2531238e-09, global = 8.9847151e-10, cumulative = 4.217976e-09
In manipulateMatrix: true bou: 258 int: 0
amgSolver:  Solving for p, Initial residual = 0.008510139, Final residual = 9.2771767e-08, No Iterations 42
Overset time step continuity errors : max local = 6.6005583e-06, sum local = 1.3547785e-09, global = -9.7113384e-10, cumulative = 3.2468421e-09
ExecutionTime = 2.15 s  ClockTime = 2 s

forces output:
    forces(pressure, viscous)((143.59776 -0.65004524 0) (0 0 0))
    moment(pressure, viscous)((0.032502262 7.1798878 8.6690476e-09) (0 0 0))

forceCoeffs output:
    Cd = 287.19551
    Cl = -1.3000905
    Cm = 0

Time = 0.003

Courant Number mean: 1.430118 max: 13.681862 velocity magnitude: 276.08094
In manipulateMatrix: true bou: 258 int: 0
smoothSolver:  Solving for Ux, Initial residual = 0.017603197, Final residual = 9.6468609e-08, No Iterations 44
smoothSolver:  Solving for Uy, Initial residual = 0.016515704, Final residual = 9.242582e-08, No Iterations 44
In manipulateMatrix: true bou: 258 int: 0
amgSolver:  Solving for p, Initial residual = 0.033305917, Final residual = 9.1627003e-08, No Iterations 48
Overset time step continuity errors : max local = 0.00070164441, sum local = 1.3356201e-09, global = 9.6063041e-10, cumulative = 4.2074725e-09
In manipulateMatrix: true bou: 258 int: 0
amgSolver:  Solving for p, Initial residual = 0.022546678, Final residual = 9.911353e-08, No Iterations 46
Overset time step continuity errors : max local = 6.9166602e-06, sum local = 1.4233931e-09, global = -1.0236783e-09, cumulative = 3.1837942e-09
In manipulateMatrix: true bou: 258 int: 0
amgSolver:  Solving for p, Initial residual = 0.0089564241, Final residual = 9.0113748e-08, No Iterations 39
Overset time step continuity errors : max local = 0.00068390026, sum local = 1.3021361e-09, global = 9.369501e-10, cumulative = 4.1207443e-09
In manipulateMatrix: true bou: 258 int: 0
amgSolver:  Solving for p, Initial residual = 0.0061366636, Final residual = 9.1991513e-08, No Iterations 41
Overset time step continuity errors : max local = 6.4762563e-06, sum local = 1.3392333e-09, global = -9.6343996e-10, cumulative = 3.1573044e-09
ExecutionTime = 2.48 s  ClockTime = 2 s

forces output:
    forces(pressure, viscous)((148.86924 -0.7684535 0) (0 0 0))
    moment(pressure, viscous)((0.038422675 7.4434619 9.1209752e-09) (0 0 0))

forceCoeffs output:
    Cd = 297.73847
    Cl = -1.536907
    Cm = 0

Time = 0.0035

Courant Number mean: 1.4305076 max: 13.238044 velocity magnitude: 277.27072
In manipulateMatrix: true bou: 258 int: 0
smoothSolver:  Solving for Ux, Initial residual = 0.015463016, Final residual = 7.6399928e-08, No Iterations 44
smoothSolver:  Solving for Uy, Initial residual = 0.013881912, Final residual = 9.7864232e-08, No Iterations 43
In manipulateMatrix: true bou: 258 int: 0
amgSolver:  Solving for p, Initial residual = 0.029645439, Final residual = 9.0022349e-08, No Iterations 44
Overset time step continuity errors : max local = 0.00071670328, sum local = 1.3061366e-09, global = 9.3927175e-10, cumulative = 4.0965761e-09
In manipulateMatrix: true bou: 258 int: 0
amgSolver:  Solving for p, Initial residual = 0.019756657, Final residual = 9.8937179e-08, No Iterations 45
Overset time step continuity errors : max local = 6.9053641e-06, sum local = 1.4309431e-09, global = -1.0291547e-09, cumulative = 3.0674214e-09
In manipulateMatrix: true bou: 258 int: 0
amgSolver:  Solving for p, Initial residual = 0.0076925956, Final residual = 8.9702e-08, No Iterations 41
Overset time step continuity errors : max local = 0.00071144497, sum local = 1.2968293e-09, global = 9.3293477e-10, cumulative = 4.0003562e-09
In manipulateMatrix: true bou: 258 int: 0
amgSolver:  Solving for p, Initial residual = 0.0054568157, Final residual = 8.9672234e-08, No Iterations 41
Overset time step continuity errors : max local = 6.3058242e-06, sum local = 1.3117141e-09, global = -9.4361326e-10, cumulative = 3.0567429e-09
ExecutionTime = 2.81 s  ClockTime = 2 s

forces output:
    forces(pressure, viscous)((154.51164 -0.85220659 0) (0 0 0))
    moment(pressure, viscous)((0.04261033 7.7255821 8.7606318e-09) (0 0 0))

forceCoeffs output:
    Cd = 309.02328
    Cl = -1.7044132
    Cm = 0

Time = 0.004

Courant Number mean: 1.4313228 max: 12.965709 velocity magnitude: 278.10981
In manipulateMatrix: true bou: 258 int: 0
smoothSolver:  Solving for Ux, Initial residual = 0.014435796, Final residual = 8.4735879e-08, No Iterations 43
smoothSolver:  Solving for Uy, Initial residual = 0.012105942, Final residual = 8.1170943e-08, No Iterations 43
In manipulateMatrix: true bou: 258 int: 0
amgSolver:  Solving for p, Initial residual = 0.030880474, Final residual = 8.4988282e-08, No Iterations 39
Overset time step continuity errors : max local = 0.00072149486, sum local = 1.2351086e-09, global = 9.4023893e-10, cumulative = 3.9969819e-09
In manipulateMatrix: true bou: 258 int: 0
amgSolver:  Solving for p, Initial residual = 0.021196714, Final residual = 8.5837644e-08, No Iterations 43
Overset time step continuity errors : max local = 6.0210191e-06, sum local = 1.2561011e-09, global = -9.56337e-10, cumulative = 3.0406449e-09
In manipulateMatrix: true bou: 258 int: 0
amgSolver:  Solving for p, Initial residual = 0.0074993041, Final residual = 9.0719661e-08, No Iterations 41
Overset time step continuity errors : max local = 0.00077077149, sum local = 1.3197455e-09, global = 1.0048434e-09, cumulative = 4.0454882e-09
In manipulateMatrix: true bou: 258 int: 0
amgSolver:  Solving for p, Initial residual = 0.0054919663, Final residual = 9.3202354e-08, No Iterations 40
Overset time step continuity errors : max local = 6.5834683e-06, sum local = 1.3755985e-09, global = -1.0473821e-09, cumulative = 2.9981061e-09
ExecutionTime = 3.14 s  ClockTime = 3 s

forces output:
    forces(pressure, viscous)((160.10158 -0.91080706 0) (0 0 0))
    moment(pressure, viscous)((0.045540353 8.0050788 8.1182461e-09) (0 0 0))

forceCoeffs output:
    Cd = 320.20315
    Cl = -1.8216141
    Cm = 0

Time = 0.0045

Courant Number mean: 1.4323405 max: 12.717402 velocity magnitude: 278.72233
In manipulateMatrix: true bou: 258 int: 0
smoothSolver:  Solving for Ux, Initial residual = 0.014205494, Final residual = 9.9895115e-08, No Iterations 42
smoothSolver:  Solving for Uy, Initial residual = 0.010966659, Final residual = 9.2099686e-08, No Iterations 42
In manipulateMatrix: true bou: 258 int: 0
amgSolver:  Solving for p, Initial residual = 0.032112216, Final residual = 9.1074443e-08, No Iterations 36
Overset time step continuity errors : max local = 0.00079710259, sum local = 1.33345e-09, global = 9.5509694e-10, cumulative = 3.9532031e-09
In manipulateMatrix: true bou: 258 int: 0
amgSolver:  Solving for p, Initial residual = 0.023954099, Final residual = 8.6083181e-08, No Iterations 43
Overset time step continuity errors : max local = 6.1826111e-06, sum local = 1.2745576e-09, global = -9.1497704e-10, cumulative = 3.038226e-09
In manipulateMatrix: true bou: 258 int: 0
amgSolver:  Solving for p, Initial residual = 0.0078356247, Final residual = 9.2866075e-08, No Iterations 42
Overset time step continuity errors : max local = 0.00081538964, sum local = 1.3639775e-09, global = 9.7950184e-10, cumulative = 4.0177278e-09
In manipulateMatrix: true bou: 258 int: 0
amgSolver:  Solving for p, Initial residual = 0.0056179583, Final residual = 9.1556394e-08, No Iterations 41
Overset time step continuity errors : max local = 6.585047e-06, sum local = 1.3649955e-09, global = -9.8030111e-10, cumulative = 3.0374267e-09
ExecutionTime = 3.45 s  ClockTime = 3 s

forces output:
    forces(pressure, viscous)((165.10255 -0.95022379 0) (0 0 0))
    moment(pressure, viscous)((0.04751119 8.2551275 7.554916e-09) (0 0 0))

forceCoeffs output:
    Cd = 330.2051
    Cl = -1.9004476
    Cm = 0

Time = 0.005

Courant Number mean: 1.4334602 max: 12.705517 velocity magnitude: 279.18942
In manipulateMatrix: true bou: 258 int: 0
smoothSolver:  Solving for Ux, Initial residual = 0.014062361, Final residual = 8.808283e-08, No Iterations 42
smoothSolver:  Solving for Uy, Initial residual = 0.010316587, Final residual = 7.8860442e-08, No Iterations 42
In manipulateMatrix: true bou: 258 int: 0
amgSolver:  Solving for p, Initial residual = 0.033736452, Final residual = 8.897933e-08, No Iterations 36
Overset time step continuity errors : max local = 0.00086248895, sum local = 1.3152121e-09, global = 1.1142227e-09, cumulative = 4.1516494e-09
In manipulateMatrix: true bou: 258 int: 0
amgSolver:  Solving for p, Initial residual = 0.026220236, Final residual = 9.9801208e-08, No Iterations 40
Overset time step continuity errors : max local = 1.0619442e-05, sum local = 1.4973145e-09, global = -1.2686216e-09, cumulative = 2.8830278e-09
In manipulateMatrix: true bou: 258 int: 0
amgSolver:  Solving for p, Initial residual = 0.0080929835, Final residual = 9.5941566e-08, No Iterations 39
Overset time step continuity errors : max local = 0.00093508889, sum local = 1.4258098e-09, global = 1.2080528e-09, cumulative = 4.0910806e-09
In manipulateMatrix: true bou: 258 int: 0
amgSolver:  Solving for p, Initial residual = 0.005520103, Final residual = 8.207611e-08, No Iterations 39
Overset time step continuity errors : max local = 8.7754728e-06, sum local = 1.2368264e-09, global = -1.0479322e-09, cumulative = 3.0431484e-09
ExecutionTime = 3.75 s  ClockTime = 3 s

forces output:
    forces(pressure, viscous)((169.39344 -0.9773541 0) (0 0 0))
    moment(pressure, viscous)((0.048867705 8.4696721 7.1222295e-09) (0 0 0))

forceCoeffs output:
    Cd = 338.78688
    Cl = -1.9547082
    Cm = 0

Time = 0.0055

Courant Number mean: 1.4345806 max: 12.724277 velocity magnitude: 279.56275
In manipulateMatrix: true bou: 258 int: 0
smoothSolver:  Solving for Ux, Initial residual = 0.013768895, Final residual = 7.701712e-08, No Iterations 42
smoothSolver:  Solving for Uy, Initial residual = 0.0096894662, Final residual = 8.9092619e-08, No Iterations 41
In manipulateMatrix: true bou: 258 int: 0
amgSolver:  Solving for p, Initial residual = 0.036303616, Final residual = 9.7517198e-08, No Iterations 38
Overset time step continuity errors : max local = 0.00094080077, sum local = 1.4572693e-09, global = 1.3489683e-09, cumulative = 4.3921167e-09
In manipulateMatrix: true bou: 258 int: 0
amgSolver:  Solving for p, Initial residual = 0.026905078, Final residual = 9.197775e-08, No Iterations 40
Overset time step continuity errors : max local = 1.3871455e-05, sum local = 1.402108e-09, global = -1.2977032e-09, cumulative = 3.0944135e-09
In manipulateMatrix: true bou: 258 int: 0
amgSolver:  Solving for p, Initial residual = 0.0077380272, Final residual = 8.732739e-08, No Iterations 37
Overset time step continuity errors : max local = 0.0008412611, sum local = 1.3120238e-09, global = 1.213743e-09, cumulative = 4.3081565e-09
In manipulateMatrix: true bou: 258 int: 0
amgSolver:  Solving for p, Initial residual = 0.0051450053, Final residual = 8.074351e-08, No Iterations 37
Overset time step continuity errors : max local = 1.2237968e-05, sum local = 1.2286913e-09, global = -1.1372695e-09, cumulative = 3.170887e-09
ExecutionTime = 4.06 s  ClockTime = 4 s

forces output:
    forces(pressure, viscous)((172.66972 -0.99038791 0) (0 0 0))
    moment(pressure, viscous)((0.049519395 8.6334859 6.995015e-09) (0 0 0))

forceCoeffs output:
    Cd = 345.33943
    Cl = -1.9807758
    Cm = 0

Time = 0.006

Courant Number mean: 1.435596 max: 12.740808 velocity magnitude: 279.87445
In manipulateMatrix: true bou: 258 int: 0
smoothSolver:  Solving for Ux, Initial residual = 0.013277539, Final residual = 9.0019317e-08, No Iterations 41
smoothSolver:  Solving for Uy, Initial residual = 0.0089877979, Final residual = 7.5656974e-08, No Iterations 41
In manipulateMatrix: true bou: 258 int: 0
amgSolver:  Solving for p, Initial residual = 0.036339296, Final residual = 9.8442978e-08, No Iterations 41
Overset time step continuity errors : max local = 0.0010177911, sum local = 1.4852338e-09, global = 1.3746241e-09, cumulative = 4.5455111e-09
In manipulateMatrix: true bou: 258 int: 0
amgSolver:  Solving for p, Initial residual = 0.025475472, Final residual = 8.1942637e-08, No Iterations 42
Overset time step continuity errors : max local = 1.2553755e-05, sum local = 1.2730173e-09, global = -1.178094e-09, cumulative = 3.3674171e-09
In manipulateMatrix: true bou: 258 int: 0
amgSolver:  Solving for p, Initial residual = 0.0069603708, Final residual = 9.9763242e-08, No Iterations 35
Overset time step continuity errors : max local = 0.0010147918, sum local = 1.5137075e-09, global = 1.3986371e-09, cumulative = 4.7660542e-09
In manipulateMatrix: true bou: 258 int: 0
amgSolver:  Solving for p, Initial residual = 0.0044145223, Final residual = 8.6619384e-08, No Iterations 36
Overset time step continuity errors : max local = 1.2946023e-05, sum local = 1.3294703e-09, global = -1.2311372e-09, cumulative = 3.534917e-09
ExecutionTime = 4.38 s  ClockTime = 4 s

forces output:
    forces(pressure, viscous)((174.26737 -0.98851146 0) (0 0 0))
    moment(pressure, viscous)((0.049425573 8.7133684 7.3070389e-09) (0 0 0))

forceCoeffs output:
    Cd = 348.53473
    Cl = -1.9770229
    Cm = 0

Time = 0.0065

Courant Number mean: 1.436385 max: 12.754553 velocity magnitude: 280.14151
In manipulateMatrix: true bou: 258 int: 0
smoothSolver:  Solving for Ux, Initial residual = 0.012545647, Final residual = 7.7380709e-08, No Iterations 41
smoothSolver:  Solving for Uy, Initial residual = 0.0081857302, Final residual = 8.5030009e-08, No Iterations 40
In manipulateMatrix: true bou: 258 int: 0
amgSolver:  Solving for p, Initial residual = 0.033858257, Final residual = 8.4558911e-08, No Iterations 44
Overset time step continuity errors : max local = 0.00092959111, sum local = 1.2885204e-09, global = 1.1930895e-09, cumulative = 4.7280064e-09
In manipulateMatrix: true bou: 258 int: 0
amgSolver:  Solving for p, Initial residual = 0.022914133, Final residual = 8.3830477e-08, No Iterations 43
Overset time step continuity errors : max local = 1.2858152e-05, sum local = 1.326153e-09, global = -1.2278819e-09, cumulative = 3.5001245e-09
In manipulateMatrix: true bou: 258 int: 0
amgSolver:  Solving for p, Initial residual = 0.0060673494, Final residual = 9.9821799e-08, No Iterations 33
Overset time step continuity errors : max local = 0.0010637996, sum local = 1.5261654e-09, global = 1.4066987e-09, cumulative = 4.9068232e-09
In manipulateMatrix: true bou: 258 int: 0
amgSolver:  Solving for p, Initial residual = 0.0035918186, Final residual = 9.3250772e-08, No Iterations 35
Overset time step continuity errors : max local = 1.4055485e-05, sum local = 1.4400982e-09, global = -1.3326242e-09, cumulative = 3.5741991e-09
ExecutionTime = 4.68 s  ClockTime = 4 s

forces output:
    forces(pressure, viscous)((174.13061 -0.96487116 0) (0 0 0))
    moment(pressure, viscous)((0.048243558 8.7065306 7.912816e-09) (0 0 0))

forceCoeffs output:
    Cd = 348.26122
    Cl = -1.9297423
    Cm = 0

Time = 0.007

Courant Number mean: 1.4368949 max: 12.764968 velocity magnitude: 280.35824
In manipulateMatrix: true bou: 258 int: 0
smoothSolver:  Solving for Ux, Initial residual = 0.011619836, Final residual = 8.8585666e-08, No Iterations 40
smoothSolver:  Solving for Uy, Initial residual = 0.0072997788, Final residual = 9.5809631e-08, No Iterations 39
In manipulateMatrix: true bou: 258 int: 0
amgSolver:  Solving for p, Initial residual = 0.029673832, Final residual = 8.8578082e-08, No Iterations 41
Overset time step continuity errors : max local = 0.0010140989, sum local = 1.3595951e-09, global = 1.2599415e-09, cumulative = 4.8341406e-09
In manipulateMatrix: true bou: 258 int: 0
amgSolver:  Solving for p, Initial residual = 0.019460562, Final residual = 8.3058468e-08, No Iterations 44
Overset time step continuity errors : max local = 1.2578263e-05, sum local = 1.3320702e-09, global = -1.2359362e-09, cumulative = 3.5982044e-09
In manipulateMatrix: true bou: 258 int: 0
amgSolver:  Solving for p, Initial residual = 0.0053581423, Final residual = 9.301897e-08, No Iterations 30
Overset time step continuity errors : max local = 0.0011322895, sum local = 1.4303384e-09, global = 1.3256623e-09, cumulative = 4.9238667e-09
In manipulateMatrix: true bou: 258 int: 0
amgSolver:  Solving for p, Initial residual = 0.0028664444, Final residual = 8.5429537e-08, No Iterations 34
Overset time step continuity errors : max local = 1.2448687e-05, sum local = 1.3256374e-09, global = -1.2303647e-09, cumulative = 3.6935019e-09
ExecutionTime = 4.99 s  ClockTime = 5 s

forces output:
    forces(pressure, viscous)((172.50398 -0.9163655 0) (0 0 0))
    moment(pressure, viscous)((0.045818275 8.6251991 8.7093544e-09) (0 0 0))

forceCoeffs output:
    Cd = 345.00796
    Cl = -1.832731
    Cm = 0

Time = 0.0075

Courant Number mean: 1.4371345 max: 12.771895 velocity magnitude: 280.52238
In manipulateMatrix: true bou: 258 int: 0
smoothSolver:  Solving for Ux, Initial residual = 0.010636402, Final residual = 7.4016477e-08, No Iterations 40
smoothSolver:  Solving for Uy, Initial residual = 0.0064571775, Final residual = 8.2436473e-08, No Iterations 39
In manipulateMatrix: true bou: 258 int: 0
amgSolver:  Solving for p, Initial residual = 0.025552176, Final residual = 8.5092083e-08, No Iterations 46
Overset time step continuity errors : max local = 0.0010424839, sum local = 1.3135258e-09, global = 1.2246868e-09, cumulative = 4.9181888e-09
In manipulateMatrix: true bou: 258 int: 0
amgSolver:  Solving for p, Initial residual = 0.015842053, Final residual = 9.2566561e-08, No Iterations 44
Overset time step continuity errors : max local = 1.4175383e-05, sum local = 1.4972922e-09, global = -1.396054e-09, cumulative = 3.5221348e-09
In manipulateMatrix: true bou: 258 int: 0
amgSolver:  Solving for p, Initial residual = 0.0049139575, Final residual = 8.2626699e-08, No Iterations 20
Overset time step continuity errors : max local = 0.0010485228, sum local = 1.2735561e-09, global = 1.1494502e-09, cumulative = 4.671585e-09
In manipulateMatrix: true bou: 258 int: 0
amgSolver:  Solving for p, Initial residual = 0.00249058, Final residual = 9.6790874e-08, No Iterations 32
Overset time step continuity errors : max local = 1.423445e-05, sum local = 1.504677e-09, global = -1.403031e-09, cumulative = 3.2685539e-09
ExecutionTime = 5.29 s  ClockTime = 5 s

forces output:
    forces(pressure, viscous)((169.78814 -0.84257947 0) (0 0 0))
    moment(pressure, viscous)((0.042128974 8.4894069 9.4131161e-09) (0 0 0))

forceCoeffs output:
    Cd = 339.57628
    Cl = -1.6851589
    Cm = 0

Time = 0.008

Courant Number mean: 1.4370475 max: 12.77555 velocity magnitude: 280.62484
In manipulateMatrix: true bou: 258 int: 0
smoothSolver:  Solving for Ux, Initial residual = 0.0096653093, Final residual = 8.2843149e-08, No Iterations 39
smoothSolver:  Solving for Uy, Initial residual = 0.0057282628, Final residual = 9.4361525e-08, No Iterations 38
In manipulateMatrix: true bou: 258 int: 0
amgSolver:  Solving for p, Initial residual = 0.020836513, Final residual = 9.7057026e-08, No Iterations 45
Overset time step continuity errors : max local = 0.0012046403, sum local = 1.5053181e-09, global = 1.4102123e-09, cumulative = 4.6787662e-09
In manipulateMatrix: true bou: 258 int: 0
amgSolver:  Solving for p, Initial residual = 0.012517277, Final residual = 8.8025392e-08, No Iterations 42
Overset time step continuity errors : max local = 1.4051548e-05, sum local = 1.428151e-09, global = -1.2850807e-09, cumulative = 3.3936855e-09
In manipulateMatrix: true bou: 258 int: 0
amgSolver:  Solving for p, Initial residual = 0.0045742441, Final residual = 9.15649e-08, No Iterations 23
Overset time step continuity errors : max local = 4.977208e-05, sum local = 1.4171199e-09, global = -1.2663863e-09, cumulative = 2.1272992e-09
In manipulateMatrix: true bou: 258 int: 0
amgSolver:  Solving for p, Initial residual = 0.002307484, Final residual = 9.805577e-08, No Iterations 30
Overset time step continuity errors : max local = 1.4680283e-05, sum local = 1.5288117e-09, global = -1.3984369e-09, cumulative = 7.2886233e-10
ExecutionTime = 5.58 s  ClockTime = 5 s

forces output:
    forces(pressure, viscous)((166.61235 -0.74296382 0) (0 0 0))
    moment(pressure, viscous)((0.037148191 8.3306175 1.0167768e-08) (0 0 0))

forceCoeffs output:
    Cd = 333.2247
    Cl = -1.4859276
    Cm = 0

Time = 0.0085

Courant Number mean: 1.4366243 max: 12.776391 velocity magnitude: 280.66958
In manipulateMatrix: true bou: 258 int: 0
smoothSolver:  Solving for Ux, Initial residual = 0.0088508783, Final residual = 9.4679678e-08, No Iterations 38
smoothSolver:  Solving for Uy, Initial residual = 0.0052238934, Final residual = 8.2443417e-08, No Iterations 38
In manipulateMatrix: true bou: 258 int: 0
amgSolver:  Solving for p, Initial residual = 0.017118735, Final residual = 8.6910593e-08, No Iterations 46
Overset time step continuity errors : max local = 0.0011129981, sum local = 1.3551261e-09, global = 1.2689921e-09, cumulative = 1.9978545e-09
In manipulateMatrix: true bou: 258 int: 0
amgSolver:  Solving for p, Initial residual = 0.0098191238, Final residual = 9.3861572e-08, No Iterations 42
Overset time step continuity errors : max local = 1.6852484e-05, sum local = 1.5225388e-09, global = -1.4160073e-09, cumulative = 5.8184716e-10
In manipulateMatrix: true bou: 258 int: 0
amgSolver:  Solving for p, Initial residual = 0.0040598135, Final residual = 9.3451057e-08, No Iterations 26
Overset time step continuity errors : max local = 1.7641083e-05, sum local = 1.4538865e-09, global = -1.358687e-09, cumulative = -7.7683982e-10
In manipulateMatrix: true bou: 258 int: 0
amgSolver:  Solving for p, Initial residual = 0.0020928572, Final residual = 9.9617867e-08, No Iterations 27
Overset time step continuity errors : max local = 1.5157016e-05, sum local = 1.5589872e-09, global = -1.4293215e-09, cumulative = -2.2061613e-09
ExecutionTime = 5.86 s  ClockTime = 5 s

forces output:
    forces(pressure, viscous)((163.37162 -0.62454565 0) (0 0 0))
    moment(pressure, viscous)((0.031227283 8.1685809 1.0876205e-08) (0 0 0))

forceCoeffs output:
    Cd = 326.74324
    Cl = -1.2490913
    Cm = 0

Time = 0.009

Courant Number mean: 1.4359948 max: 12.775172 velocity magnitude: 280.66211
In manipulateMatrix: true bou: 258 int: 0
smoothSolver:  Solving for Ux, Initial residual = 0.0081567368, Final residual = 8.0566924e-08, No Iterations 38
smoothSolver:  Solving for Uy, Initial residual = 0.0048662483, Final residual = 7.4799319e-08, No Iterations 38
In manipulateMatrix: true bou: 258 int: 0
amgSolver:  Solving for p, Initial residual = 0.014154084, Final residual = 9.0884987e-08, No Iterations 44
Overset time step continuity errors : max local = 0.0012430147, sum local = 1.4221757e-09, global = 1.3386901e-09, cumulative = -8.6747115e-10
In manipulateMatrix: true bou: 258 int: 0
amgSolver:  Solving for p, Initial residual = 0.0077742577, Final residual = 8.4812297e-08, No Iterations 41
Overset time step continuity errors : max local = 1.2675331e-05, sum local = 1.368293e-09, global = -1.2397438e-09, cumulative = -2.107215e-09
In manipulateMatrix: true bou: 258 int: 0
amgSolver:  Solving for p, Initial residual = 0.0033028073, Final residual = 8.0016226e-08, No Iterations 28
Overset time step continuity errors : max local = 1.3528512e-05, sum local = 1.2491217e-09, global = -1.1468897e-09, cumulative = -3.2541046e-09
In manipulateMatrix: true bou: 258 int: 0
amgSolver:  Solving for p, Initial residual = 0.0017717459, Final residual = 8.3368727e-08, No Iterations 23
Overset time step continuity errors : max local = 1.3256296e-05, sum local = 1.3070074e-09, global = -1.1811777e-09, cumulative = -4.4352823e-09
ExecutionTime = 6.14 s  ClockTime = 6 s

forces output:
    forces(pressure, viscous)((160.54456 -0.49781654 0) (0 0 0))
    moment(pressure, viscous)((0.024890827 8.027228 1.1407507e-08) (0 0 0))

forceCoeffs output:
    Cd = 321.08912
    Cl = -0.99563308
    Cm = 0

Time = 0.0095

Courant Number mean: 1.43527 max: 12.772702 velocity magnitude: 280.61446
In manipulateMatrix: true bou: 258 int: 0
smoothSolver:  Solving for Ux, Initial residual = 0.0075943273, Final residual = 9.4012018e-08, No Iterations 37
smoothSolver:  Solving for Uy, Initial residual = 0.0045713188, Final residual = 9.2189047e-08, No Iterations 37
In manipulateMatrix: true bou: 258 int: 0
amgSolver:  Solving for p, Initial residual = 0.011930009, Final residual = 9.0887977e-08, No Iterations 42
Overset time step continuity errors : max local = 0.0013124375, sum local = 1.424994e-09, global = 1.3425183e-09, cumulative = -3.0927641e-09
In manipulateMatrix: true bou: 258 int: 0
amgSolver:  Solving for p, Initial residual = 0.0066158754, Final residual = 9.6661377e-08, No Iterations 40
Overset time step continuity errors : max local = 1.7349596e-05, sum local = 1.5487751e-09, global = -1.4573583e-09, cumulative = -4.5501223e-09
In manipulateMatrix: true bou: 258 int: 0
amgSolver:  Solving for p, Initial residual = 0.0025445271, Final residual = 8.6675596e-08, No Iterations 29
Overset time step continuity errors : max local = 1.4608551e-05, sum local = 1.3566894e-09, global = -1.2739394e-09, cumulative = -5.8240617e-09
In manipulateMatrix: true bou: 258 int: 0
amgSolver:  Solving for p, Initial residual = 0.0014308302, Final residual = 9.124878e-08, No Iterations 15
Overset time step continuity errors : max local = 0.0010115146, sum local = 1.4323288e-09, global = 1.1450059e-09, cumulative = -4.6790558e-09
ExecutionTime = 6.42 s  ClockTime = 6 s

forces output:
    forces(pressure, viscous)((158.34447 -0.3680587 0) (0 0 0))
    moment(pressure, viscous)((0.018402935 7.9172237 1.1726844e-08) (0 0 0))

forceCoeffs output:
    Cd = 316.68895
    Cl = -0.7361174
    Cm = 0

Time = 0.01

Courant Number mean: 1.4345344 max: 12.769709 velocity magnitude: 280.54225
In manipulateMatrix: true bou: 258 int: 0
smoothSolver:  Solving for Ux, Initial residual = 0.0070917189, Final residual = 8.2046833e-08, No Iterations 37
smoothSolver:  Solving for Uy, Initial residual = 0.0041908069, Final residual = 8.0856683e-08, No Iterations 37
In manipulateMatrix: true bou: 258 int: 0
amgSolver:  Solving for p, Initial residual = 0.009661968, Final residual = 8.5448652e-08, No Iterations 44
Overset time step continuity errors : max local = 0.001322685, sum local = 1.3415288e-09, global = 1.0359437e-09, cumulative = -3.6431122e-09
In manipulateMatrix: true bou: 258 int: 0
amgSolver:  Solving for p, Initial residual = 0.0056180083, Final residual = 9.736475e-08, No Iterations 41
Overset time step continuity errors : max local = 6.8842299e-06, sum local = 1.5505919e-09, global = -1.1974998e-09, cumulative = -4.840612e-09
In manipulateMatrix: true bou: 258 int: 0
amgSolver:  Solving for p, Initial residual = 0.0019248243, Final residual = 9.251483e-08, No Iterations 32
Overset time step continuity errors : max local = 6.5155453e-06, sum local = 1.4505208e-09, global = -1.1188407e-09, cumulative = -5.9594527e-09
In manipulateMatrix: true bou: 258 int: 0
amgSolver:  Solving for p, Initial residual = 0.0011201942, Final residual = 9.4444355e-08, No Iterations 26
Overset time step continuity errors : max local = 0.0014633973, sum local = 1.4833753e-09, global = 1.1447311e-09, cumulative = -4.8147216e-09
ExecutionTime = 6.69 s  ClockTime = 6 s

forces output:
    forces(pressure, viscous)((156.81874 -0.24146851 0) (0 0 0))
    moment(pressure, viscous)((0.012073425 7.8409371 1.1962332e-08) (0 0 0))

forceCoeffs output:
    Cd = 313.63748
    Cl = -0.48293701
    Cm = 0

Time = 0.0105

Courant Number mean: 1.433835 max: 12.766748 velocity magnitude: 280.46019
In manipulateMatrix: true bou: 258 int: 0
smoothSolver:  Solving for Ux, Initial residual = 0.006617337, Final residual = 9.8862886e-08, No Iterations 36
smoothSolver:  Solving for Uy, Initial residual = 0.0037619767, Final residual = 9.2807446e-08, No Iterations 36
In manipulateMatrix: true bou: 258 int: 0
amgSolver:  Solving for p, Initial residual = 0.0079870613, Final residual = 9.2759364e-08, No Iterations 40
Overset time step continuity errors : max local = 0.001484136, sum local = 1.456434e-09, global = 1.1252669e-09, cumulative = -3.6894547e-09
In manipulateMatrix: true bou: 258 int: 0
amgSolver:  Solving for p, Initial residual = 0.0047804453, Final residual = 8.7268463e-08, No Iterations 38
Overset time step continuity errors : max local = 6.1212219e-06, sum local = 1.38144e-09, global = -1.0674771e-09, cumulative = -4.7569318e-09
In manipulateMatrix: true bou: 258 int: 0
amgSolver:  Solving for p, Initial residual = 0.0014866288, Final residual = 9.6699999e-08, No Iterations 29
Overset time step continuity errors : max local = 6.7927103e-06, sum local = 1.51586e-09, global = -1.1700782e-09, cumulative = -5.92701e-09
In manipulateMatrix: true bou: 258 int: 0
amgSolver:  Solving for p, Initial residual = 0.00088429228, Final residual = 9.9042808e-08, No Iterations 27
Overset time step continuity errors : max local = 0.0015847192, sum local = 1.5541951e-09, global = 1.2016019e-09, cumulative = -4.7254081e-09
ExecutionTime = 6.95 s  ClockTime = 7 s

forces output:
    forces(pressure, viscous)((155.86492 -0.13887299 0) (0 0 0))
    moment(pressure, viscous)((0.0069436494 7.7932459 1.207266e-08) (0 0 0))

forceCoeffs output:
    Cd = 311.72984
    Cl = -0.27774598
    Cm = 0

Time = 0.011

Courant Number mean: 1.4332147 max: 12.764176 velocity magnitude: 280.38125
In manipulateMatrix: true bou: 258 int: 0
smoothSolver:  Solving for Ux, Initial residual = 0.0061567991, Final residual = 8.8064459e-08, No Iterations 36
smoothSolver:  Solving for Uy, Initial residual = 0.0033434951, Final residual = 7.6505912e-08, No Iterations 36
In manipulateMatrix: true bou: 258 int: 0
amgSolver:  Solving for p, Initial residual = 0.0063658003, Final residual = 8.3551925e-08, No Iterations 34
Overset time step continuity errors : max local = 0.0013707037, sum local = 1.31048e-09, global = 1.0127259e-09, cumulative = -3.7126822e-09
In manipulateMatrix: true bou: 258 int: 0
amgSolver:  Solving for p, Initial residual = 0.0039345625, Final residual = 8.6304541e-08, No Iterations 32
Overset time step continuity errors : max local = 5.9670503e-06, sum local = 1.3590656e-09, global = -1.0505788e-09, cumulative = -4.763261e-09
In manipulateMatrix: true bou: 258 int: 0
amgSolver:  Solving for p, Initial residual = 0.0011042538, Final residual = 9.8928447e-08, No Iterations 22
Overset time step continuity errors : max local = 6.8168954e-06, sum local = 1.5491923e-09, global = -1.1984099e-09, cumulative = -5.961671e-09
In manipulateMatrix: true bou: 258 int: 0
amgSolver:  Solving for p, Initial residual = 0.00066335554, Final residual = 9.9213962e-08, No Iterations 27
Overset time step continuity errors : max local = 0.0016267394, sum local = 1.5544589e-09, global = 1.2015465e-09, cumulative = -4.7601244e-09
ExecutionTime = 7.2 s  ClockTime = 7 s

forces output:
    forces(pressure, viscous)((155.3271 -0.070040396 0) (0 0 0))
    moment(pressure, viscous)((0.0035020198 7.7663552 1.2157441e-08) (0 0 0))

forceCoeffs output:
    Cd = 310.65421
    Cl = -0.14008079
    Cm = 0

Time = 0.0115

Courant Number mean: 1.4326895 max: 12.762164 velocity magnitude: 280.3136
In manipulateMatrix: true bou: 258 int: 0
smoothSolver:  Solving for Ux, Initial residual = 0.005714529, Final residual = 7.8657012e-08, No Iterations 36
smoothSolver:  Solving for Uy, Initial residual = 0.0029753696, Final residual = 8.6490327e-08, No Iterations 35
In manipulateMatrix: true bou: 258 int: 0
amgSolver:  Solving for p, Initial residual = 0.0050525645, Final residual = 8.8607515e-08, No Iterations 32
Overset time step continuity errors : max local = 6.38406e-06, sum local = 1.3877794e-09, global = -1.0650035e-09, cumulative = -5.8251279e-09
In manipulateMatrix: true bou: 258 int: 0
amgSolver:  Solving for p, Initial residual = 0.0030650877, Final residual = 9.4842788e-08, No Iterations 23
Overset time step continuity errors : max local = 0.00156233, sum local = 1.488013e-09, global = 1.1529927e-09, cumulative = -4.6721351e-09
In manipulateMatrix: true bou: 258 int: 0
amgSolver:  Solving for p, Initial residual = 0.00078323681, Final residual = 8.5893196e-08, No Iterations 23
Overset time step continuity errors : max local = 5.8022249e-06, sum local = 1.3439773e-09, global = -1.0435919e-09, cumulative = -5.7157271e-09
In manipulateMatrix: true bou: 258 int: 0
amgSolver:  Solving for p, Initial residual = 0.00047371677, Final residual = 8.6652963e-08, No Iterations 27
Overset time step continuity errors : max local = 0.0014199004, sum local = 1.3561469e-09, global = 1.0478239e-09, cumulative = -4.6679032e-09
ExecutionTime = 7.43 s  ClockTime = 7 s

forces output:
    forces(pressure, viscous)((155.0549 -0.042779182 0) (0 0 0))
    moment(pressure, viscous)((0.0021389591 7.752745 1.2213219e-08) (0 0 0))

forceCoeffs output:
    Cd = 310.1098
    Cl = -0.085558363
    Cm = 0

Time = 0.012

Courant Number mean: 1.4322438 max: 12.760737 velocity magnitude: 280.2607
In manipulateMatrix: true bou: 258 int: 0
smoothSolver:  Solving for Ux, Initial residual = 0.0052966011, Final residual = 9.5881236e-08, No Iterations 35
smoothSolver:  Solving for Uy, Initial residual = 0.0026814795, Final residual = 7.3513328e-08, No Iterations 35
In manipulateMatrix: true bou: 258 int: 0
amgSolver:  Solving for p, Initial residual = 0.0039051292, Final residual = 9.7877353e-08, No Iterations 35
Overset time step continuity errors : max local = 6.8629053e-06, sum local = 1.5314535e-09, global = -1.1796431e-09, cumulative = -5.8475463e-09
In manipulateMatrix: true bou: 258 int: 0
amgSolver:  Solving for p, Initial residual = 0.002292218, Final residual = 9.7715434e-08, No Iterations 33
Overset time step continuity errors : max local = 0.0016074866, sum local = 1.5293307e-09, global = 1.1773729e-09, cumulative = -4.6701734e-09
In manipulateMatrix: true bou: 258 int: 0
amgSolver:  Solving for p, Initial residual = 0.00056348056, Final residual = 8.2515823e-08, No Iterations 19
Overset time step continuity errors : max local = 4.6289106e-06, sum local = 1.2903682e-09, global = -9.9353101e-10, cumulative = -5.6637044e-09
In manipulateMatrix: true bou: 258 int: 0
amgSolver:  Solving for p, Initial residual = 0.00033557647, Final residual = 8.6525151e-08, No Iterations 26
Overset time step continuity errors : max local = 0.0014229798, sum local = 1.3530078e-09, global = 1.0448575e-09, cumulative = -4.6188468e-09
ExecutionTime = 7.66 s  ClockTime = 7 s

forces output:
    forces(pressure, viscous)((154.93244 -0.061300304 0) (0 0 0))
    moment(pressure, viscous)((0.0030650152 7.7466221 1.223643e-08) (0 0 0))

forceCoeffs output:
    Cd = 309.86488
    Cl = -0.12260061
    Cm = 0

Time = 0.0125

Courant Number mean: 1.4318648 max: 12.75984 velocity magnitude: 280.22284
In manipulateMatrix: true bou: 258 int: 0
smoothSolver:  Solving for Ux, Initial residual = 0.0049069908, Final residual = 8.5698899e-08, No Iterations 35
smoothSolver:  Solving for Uy, Initial residual = 0.0024608285, Final residual = 8.9665282e-08, No Iterations 34
In manipulateMatrix: true bou: 258 int: 0
amgSolver:  Solving for p, Initial residual = 0.0029743409, Final residual = 8.4147161e-08, No Iterations 37
Overset time step continuity errors : max local = 5.8797712e-06, sum local = 1.315683e-09, global = -1.0136051e-09, cumulative = -5.6324519e-09
In manipulateMatrix: true bou: 258 int: 0
amgSolver:  Solving for p, Initial residual = 0.0016869416, Final residual = 9.2862022e-08, No Iterations 31
Overset time step continuity errors : max local = 0.0015212699, sum local = 1.4511358e-09, global = 1.1181758e-09, cumulative = -4.5142761e-09
In manipulateMatrix: true bou: 258 int: 0
amgSolver:  Solving for p, Initial residual = 0.00041369346, Final residual = 8.4162926e-08, No Iterations 16
Overset time step continuity errors : max local = 5.7399438e-06, sum local = 1.315545e-09, global = -9.9005568e-10, cumulative = -5.5043318e-09
In manipulateMatrix: true bou: 258 int: 0
amgSolver:  Solving for p, Initial residual = 0.0002406479, Final residual = 9.9351631e-08, No Iterations 24
Overset time step continuity errors : max local = 0.0016285835, sum local = 1.5526325e-09, global = 1.1999293e-09, cumulative = -4.3044025e-09
ExecutionTime = 7.92 s  ClockTime = 8 s

forces output:
    forces(pressure, viscous)((154.87958 -0.12617463 0) (0 0 0))
    moment(pressure, viscous)((0.0063087316 7.7439791 1.2236303e-08) (0 0 0))

forceCoeffs output:
    Cd = 309.75916
    Cl = -0.25234926
    Cm = 0

Time = 0.013

Courant Number mean: 1.4315392 max: 12.759376 velocity magnitude: 280.19873
In manipulateMatrix: true bou: 258 int: 0
smoothSolver:  Solving for Ux, Initial residual = 0.0045487639, Final residual = 7.6286524e-08, No Iterations 35
smoothSolver:  Solving for Uy, Initial residual = 0.0022855634, Final residual = 8.178443e-08, No Iterations 34
In manipulateMatrix: true bou: 258 int: 0
amgSolver:  Solving for p, Initial residual = 0.002271829, Final residual = 9.1821987e-08, No Iterations 37
Overset time step continuity errors : max local = 6.4117744e-06, sum local = 1.4349647e-09, global = -1.1051125e-09, cumulative = -5.409515e-09
In manipulateMatrix: true bou: 258 int: 0
amgSolver:  Solving for p, Initial residual = 0.0012373581, Final residual = 9.7230846e-08, No Iterations 30
Overset time step continuity errors : max local = 0.001570227, sum local = 1.5180058e-09, global = 1.1689096e-09, cumulative = -4.2406054e-09
In manipulateMatrix: true bou: 258 int: 0
amgSolver:  Solving for p, Initial residual = 0.00031067885, Final residual = 9.7309532e-08, No Iterations 14
Overset time step continuity errors : max local = 9.3245645e-06, sum local = 1.5205716e-09, global = -1.124291e-09, cumulative = -5.3648964e-09
In manipulateMatrix: true bou: 258 int: 0
amgSolver:  Solving for p, Initial residual = 0.0001762718, Final residual = 8.9599075e-08, No Iterations 23
Overset time step continuity errors : max local = 0.0014489223, sum local = 1.3996816e-09, global = 1.0821534e-09, cumulative = -4.2827431e-09
ExecutionTime = 8.13 s  ClockTime = 8 s

forces output:
    forces(pressure, viscous)((154.84625 -0.23445923 0) (0 0 0))
    moment(pressure, viscous)((0.011722961 7.7423127 1.2222219e-08) (0 0 0))

forceCoeffs output:
    Cd = 309.69251
    Cl = -0.46891846
    Cm = 0

Time = 0.0135

Courant Number mean: 1.4312553 max: 12.759247 velocity magnitude: 280.18614
In manipulateMatrix: true bou: 258 int: 0
smoothSolver:  Solving for Ux, Initial residual = 0.0042162913, Final residual = 9.2503459e-08, No Iterations 34
smoothSolver:  Solving for Uy, Initial residual = 0.0021345133, Final residual = 7.6159858e-08, No Iterations 34
In manipulateMatrix: true bou: 258 int: 0
amgSolver:  Solving for p, Initial residual = 0.0018461787, Final residual = 8.47949e-08, No Iterations 37
Overset time step continuity errors : max local = 5.9204078e-06, sum local = 1.3247467e-09, global = -1.0203227e-09, cumulative = -5.3030658e-09
In manipulateMatrix: true bou: 258 int: 0
amgSolver:  Solving for p, Initial residual = 0.0009488831, Final residual = 9.7082875e-08, No Iterations 34
Overset time step continuity errors : max local = 0.0015612595, sum local = 1.5148299e-09, global = 1.1668576e-09, cumulative = -4.1362082e-09
In manipulateMatrix: true bou: 258 int: 0
amgSolver:  Solving for p, Initial residual = 0.00024660071, Final residual = 9.8652854e-08, No Iterations 14
Overset time step continuity errors : max local = 8.7761501e-06, sum local = 1.5412567e-09, global = -1.1575327e-09, cumulative = -5.2937409e-09
In manipulateMatrix: true bou: 258 int: 0
amgSolver:  Solving for p, Initial residual = 0.000134778, Final residual = 8.2631461e-08, No Iterations 22
Overset time step continuity errors : max local = 0.0013313433, sum local = 1.2905404e-09, global = 9.9863771e-10, cumulative = -4.2951032e-09
ExecutionTime = 8.35 s  ClockTime = 8 s

forces output:
    forces(pressure, viscous)((154.80815 -0.38032442 0) (0 0 0))
    moment(pressure, viscous)((0.019016221 7.7404074 1.2202259e-08) (0 0 0))

forceCoeffs output:
    Cd = 309.61629
    Cl = -0.76064884
    Cm = 0

Time = 0.014

Courant Number mean: 1.4310041 max: 12.759362 velocity magnitude: 280.18254
In manipulateMatrix: true bou: 258 int: 0
smoothSolver:  Solving for Ux, Initial residual = 0.0039097319, Final residual = 8.1642102e-08, No Iterations 34
smoothSolver:  Solving for Uy, Initial residual = 0.0019946984, Final residual = 9.6483185e-08, No Iterations 33
In manipulateMatrix: true bou: 258 int: 0
amgSolver:  Solving for p, Initial residual = 0.0015649774, Final residual = 8.5591709e-08, No Iterations 36
Overset time step continuity errors : max local = 5.9811208e-06, sum local = 1.336994e-09, global = -1.0298539e-09, cumulative = -5.3249571e-09
In manipulateMatrix: true bou: 258 int: 0
amgSolver:  Solving for p, Initial residual = 0.00078188826, Final residual = 8.4641298e-08, No Iterations 32
Overset time step continuity errors : max local = 0.0013547152, sum local = 1.3202296e-09, global = 1.0172267e-09, cumulative = -4.3077304e-09
In manipulateMatrix: true bou: 258 int: 0
amgSolver:  Solving for p, Initial residual = 0.00020951725, Final residual = 9.7115831e-08, No Iterations 14
Overset time step continuity errors : max local = 8.3417384e-06, sum local = 1.5170911e-09, global = -1.1593262e-09, cumulative = -5.4670566e-09
In manipulateMatrix: true bou: 258 int: 0
amgSolver:  Solving for p, Initial residual = 0.00011453362, Final residual = 9.5455298e-08, No Iterations 20
Overset time step continuity errors : max local = 0.0015331315, sum local = 1.4906785e-09, global = 1.1565633e-09, cumulative = -4.3104933e-09
ExecutionTime = 8.58 s  ClockTime = 8 s

forces output:
    forces(pressure, viscous)((154.76008 -0.55563523 0) (0 0 0))
    moment(pressure, viscous)((0.027781761 7.738004 1.2181693e-08) (0 0 0))

forceCoeffs output:
    Cd = 309.52016
    Cl = -1.1112705
    Cm = 0

Time = 0.0145

Courant Number mean: 1.4307803 max: 12.759648 velocity magnitude: 280.18555
In manipulateMatrix: true bou: 258 int: 0
smoothSolver:  Solving for Ux, Initial residual = 0.0036298563, Final residual = 9.9022977e-08, No Iterations 33
smoothSolver:  Solving for Uy, Initial residual = 0.0018594077, Final residual = 9.2418925e-08, No Iterations 33
In manipulateMatrix: true bou: 258 int: 0
amgSolver:  Solving for p, Initial residual = 0.001381554, Final residual = 9.788632e-08, No Iterations 30
Overset time step continuity errors : max local = 6.8012444e-06, sum local = 1.5289391e-09, global = -1.1786304e-09, cumulative = -5.4891237e-09
In manipulateMatrix: true bou: 258 int: 0
amgSolver:  Solving for p, Initial residual = 0.00068493007, Final residual = 9.6219015e-08, No Iterations 32
Overset time step continuity errors : max local = 0.0015321389, sum local = 1.5003568e-09, global = 1.1561438e-09, cumulative = -4.3329799e-09
In manipulateMatrix: true bou: 258 int: 0
amgSolver:  Solving for p, Initial residual = 0.00018496509, Final residual = 9.8472443e-08, No Iterations 13
Overset time step continuity errors : max local = 9.7085781e-06, sum local = 1.5381089e-09, global = -1.18792e-09, cumulative = -5.5209e-09
In manipulateMatrix: true bou: 258 int: 0
amgSolver:  Solving for p, Initial residual = 0.00010316971, Final residual = 9.1578184e-08, No Iterations 19
Overset time step continuity errors : max local = 0.0014667071, sum local = 1.4300192e-09, global = 1.1121934e-09, cumulative = -4.4087066e-09
ExecutionTime = 8.77 s  ClockTime = 8 s

forces output:
    forces(pressure, viscous)((154.70791 -0.7508469 0) (0 0 0))
    moment(pressure, viscous)((0.037542345 7.7353954 1.2164381e-08) (0 0 0))

forceCoeffs output:
    Cd = 309.41582
    Cl = -1.5016938
    Cm = 0

Time = 0.015

Courant Number mean: 1.4305817 max: 12.760051 velocity magnitude: 280.19312
In manipulateMatrix: true bou: 258 int: 0
smoothSolver:  Solving for Ux, Initial residual = 0.0033747747, Final residual = 8.780153e-08, No Iterations 33
smoothSolver:  Solving for Uy, Initial residual = 0.0017251509, Final residual = 8.9066216e-08, No Iterations 33
In manipulateMatrix: true bou: 258 int: 0
amgSolver:  Solving for p, Initial residual = 0.0012221933, Final residual = 8.3261229e-08, No Iterations 34
Overset time step continuity errors : max local = 5.8196882e-06, sum local = 1.3003954e-09, global = -1.0021152e-09, cumulative = -5.4108218e-09
In manipulateMatrix: true bou: 258 int: 0
amgSolver:  Solving for p, Initial residual = 0.00061535281, Final residual = 9.0167728e-08, No Iterations 28
Overset time step continuity errors : max local = 0.0014277276, sum local = 1.4054535e-09, global = 1.0835923e-09, cumulative = -4.3272295e-09
In manipulateMatrix: true bou: 258 int: 0
amgSolver:  Solving for p, Initial residual = 0.00016597043, Final residual = 9.5630293e-08, No Iterations 11
Overset time step continuity errors : max local = 1.5988867e-05, sum local = 1.4934612e-09, global = -1.161166e-09, cumulative = -5.4883955e-09
In manipulateMatrix: true bou: 258 int: 0
amgSolver:  Solving for p, Initial residual = 9.4424006e-05, Final residual = 8.8501434e-08, No Iterations 18
Overset time step continuity errors : max local = 0.0014148934, sum local = 1.3817869e-09, global = 1.0780637e-09, cumulative = -4.4103318e-09
ExecutionTime = 8.98 s  ClockTime = 9 s

forces output:
    forces(pressure, viscous)((154.66169 -0.95580166 0) (0 0 0))
    moment(pressure, viscous)((0.047790083 7.7330844 1.2153882e-08) (0 0 0))

forceCoeffs output:
    Cd = 309.32337
    Cl = -1.9116033
    Cm = 0

Time = 0.0155

Courant Number mean: 1.4304077 max: 12.760535 velocity magnitude: 280.20365
In manipulateMatrix: true bou: 258 int: 0
smoothSolver:  Solving for Ux, Initial residual = 0.0031425468, Final residual = 7.821922e-08, No Iterations 33
smoothSolver:  Solving for Uy, Initial residual = 0.0015912207, Final residual = 8.5832638e-08, No Iterations 33
In manipulateMatrix: true bou: 258 int: 0
amgSolver:  Solving for p, Initial residual = 0.0010870177, Final residual = 9.6384876e-08, No Iterations 33
Overset time step continuity errors : max local = 6.6289963e-06, sum local = 1.5051348e-09, global = -1.149522e-09, cumulative = -5.5598538e-09
In manipulateMatrix: true bou: 258 int: 0
amgSolver:  Solving for p, Initial residual = 0.00055814187, Final residual = 9.3761426e-08, No Iterations 31
Overset time step continuity errors : max local = 0.0014712828, sum local = 1.4607985e-09, global = 1.1157711e-09, cumulative = -4.4440827e-09
In manipulateMatrix: true bou: 258 int: 0
amgSolver:  Solving for p, Initial residual = 0.00015138331, Final residual = 7.6585816e-08, No Iterations 9
Overset time step continuity errors : max local = 0.00021476255, sum local = 1.1957413e-09, global = -4.3182948e-10, cumulative = -4.8759122e-09
In manipulateMatrix: true bou: 258 int: 0
amgSolver:  Solving for p, Initial residual = 8.7150558e-05, Final residual = 8.6221559e-08, No Iterations 17
Overset time step continuity errors : max local = 0.0013714034, sum local = 1.3458933e-09, global = 1.0428115e-09, cumulative = -3.8331007e-09
ExecutionTime = 9.18 s  ClockTime = 9 s

forces output:
    forces(pressure, viscous)((154.62997 -1.1605001 0) (0 0 0))
    moment(pressure, viscous)((0.058025005 7.7314986 1.2154053e-08) (0 0 0))

forceCoeffs output:
    Cd = 309.25995
    Cl = -2.3210002
    Cm = 0

Time = 0.016

Courant Number mean: 1.4302581 max: 12.761074 velocity magnitude: 280.2159
In manipulateMatrix: true bou: 258 int: 0
smoothSolver:  Solving for Ux, Initial residual = 0.0029296622, Final residual = 9.6710413e-08, No Iterations 32
smoothSolver:  Solving for Uy, Initial residual = 0.0014601275, Final residual = 8.2524879e-08, No Iterations 33
In manipulateMatrix: true bou: 258 int: 0
amgSolver:  Solving for p, Initial residual = 0.0009876394, Final residual = 8.5515737e-08, No Iterations 33
Overset time step continuity errors : max local = 5.8740239e-06, sum local = 1.335102e-09, global = -1.0206551e-09, cumulative = -4.8537558e-09
In manipulateMatrix: true bou: 258 int: 0
amgSolver:  Solving for p, Initial residual = 0.00050651728, Final residual = 8.9833174e-08, No Iterations 31
Overset time step continuity errors : max local = 0.0014007794, sum local = 1.3988349e-09, global = 1.0694656e-09, cumulative = -3.7842902e-09
In manipulateMatrix: true bou: 258 int: 0
amgSolver:  Solving for p, Initial residual = 0.00014293812, Final residual = 8.9111006e-08, No Iterations 10
Overset time step continuity errors : max local = 0.0034478061, sum local = 1.3908511e-09, global = 6.0452553e-10, cumulative = -3.1797646e-09
In manipulateMatrix: true bou: 258 int: 0
amgSolver:  Solving for p, Initial residual = 8.1619589e-05, Final residual = 8.1961932e-08, No Iterations 16
Overset time step continuity errors : max local = 0.0012927634, sum local = 1.2790147e-09, global = 9.8719933e-10, cumulative = -2.1925653e-09
ExecutionTime = 9.37 s  ClockTime = 9 s

forces output:
    forces(pressure, viscous)((154.61809 -1.3557576 0) (0 0 0))
    moment(pressure, viscous)((0.067787881 7.7309047 1.2168525e-08) (0 0 0))

forceCoeffs output:
    Cd = 309.23619
    Cl = -2.7115152
    Cm = 0

Time = 0.0165

Courant Number mean: 1.4301324 max: 12.761648 velocity magnitude: 280.22892
In manipulateMatrix: true bou: 258 int: 0
smoothSolver:  Solving for Ux, Initial residual = 0.0027320125, Final residual = 8.7515919e-08, No Iterations 32
smoothSolver:  Solving for Uy, Initial residual = 0.0013357541, Final residual = 7.9149274e-08, No Iterations 33
In manipulateMatrix: true bou: 258 int: 0
amgSolver:  Solving for p, Initial residual = 0.00091269603, Final residual = 8.5025465e-08, No Iterations 33
Overset time step continuity errors : max local = 5.8415993e-06, sum local = 1.3270436e-09, global = -1.014727e-09, cumulative = -3.2072922e-09
In manipulateMatrix: true bou: 258 int: 0
amgSolver:  Solving for p, Initial residual = 0.00046452958, Final residual = 8.6898788e-08, No Iterations 31
Overset time step continuity errors : max local = 0.0013473243, sum local = 1.3523524e-09, global = 1.0341652e-09, cumulative = -2.173127e-09
In manipulateMatrix: true bou: 258 int: 0
amgSolver:  Solving for p, Initial residual = 0.00013777852, Final residual = 8.2761665e-08, No Iterations 12
Overset time step continuity errors : max local = 0.0012980609, sum local = 1.2912441e-09, global = 1.0774619e-09, cumulative = -1.0956651e-09
In manipulateMatrix: true bou: 258 int: 0
amgSolver:  Solving for p, Initial residual = 7.8798912e-05, Final residual = 9.4274891e-08, No Iterations 14
Overset time step continuity errors : max local = 0.0014076183, sum local = 1.4706181e-09, global = 1.0801997e-09, cumulative = -1.54654e-11
ExecutionTime = 9.58 s  ClockTime = 9 s

forces output:
    forces(pressure, viscous)((154.62631 -1.5337194 0) (0 0 0))
    moment(pressure, viscous)((0.076685972 7.7313156 1.2200693e-08) (0 0 0))

forceCoeffs output:
    Cd = 309.25262
    Cl = -3.0674389
    Cm = 0

Time = 0.017

Courant Number mean: 1.4300288 max: 12.762242 velocity magnitude: 280.24202
In manipulateMatrix: true bou: 258 int: 0
smoothSolver:  Solving for Ux, Initial residual = 0.0025473535, Final residual = 7.9965522e-08, No Iterations 32
smoothSolver:  Solving for Uy, Initial residual = 0.0012220212, Final residual = 7.5753703e-08, No Iterations 33
In manipulateMatrix: true bou: 258 int: 0
amgSolver:  Solving for p, Initial residual = 0.00085332427, Final residual = 8.2243529e-08, No Iterations 33
Overset time step continuity errors : max local = 5.6492225e-06, sum local = 1.2831207e-09, global = -9.8138829e-10, cumulative = -9.9685369e-10
In manipulateMatrix: true bou: 258 int: 0
amgSolver:  Solving for p, Initial residual = 0.00043082599, Final residual = 8.3236476e-08, No Iterations 31
Overset time step continuity errors : max local = 0.0012837674, sum local = 1.2946268e-09, global = 9.9025851e-10, cumulative = -6.5951858e-12
In manipulateMatrix: true bou: 258 int: 0
amgSolver:  Solving for p, Initial residual = 0.00013628293, Final residual = 9.6707791e-08, No Iterations 11
Overset time step continuity errors : max local = 0.0011141416, sum local = 1.5081568e-09, global = 1.0094622e-09, cumulative = 1.002867e-09
In manipulateMatrix: true bou: 258 int: 0
amgSolver:  Solving for p, Initial residual = 7.8465781e-05, Final residual = 8.8388904e-08, No Iterations 13
Overset time step continuity errors : max local = 0.0010612735, sum local = 1.3782227e-09, global = 8.1600334e-10, cumulative = 1.8188704e-09
ExecutionTime = 9.82 s  ClockTime = 9 s

forces output:
    forces(pressure, viscous)((154.64945 -1.6884397 0) (0 0 0))
    moment(pressure, viscous)((0.084421983 7.7324726 1.2252764e-08) (0 0 0))

forceCoeffs output:
    Cd = 309.2989
    Cl = -3.3768793
    Cm = 0

Time = 0.0175

Courant Number mean: 1.4299436 max: 12.76284 velocity magnitude: 280.25462
In manipulateMatrix: true bou: 258 int: 0
smoothSolver:  Solving for Ux, Initial residual = 0.0023734155, Final residual = 7.3698231e-08, No Iterations 32
smoothSolver:  Solving for Uy, Initial residual = 0.0011213043, Final residual = 9.6984528e-08, No Iterations 32
In manipulateMatrix: true bou: 258 int: 0
amgSolver:  Solving for p, Initial residual = 0.00079844307, Final residual = 9.4943809e-08, No Iterations 32
Overset time step continuity errors : max local = 6.5236042e-06, sum local = 1.480608e-09, global = -1.1327239e-09, cumulative = 6.8614645e-10
In manipulateMatrix: true bou: 258 int: 0
amgSolver:  Solving for p, Initial residual = 0.00040383738, Final residual = 9.5185445e-08, No Iterations 30
Overset time step continuity errors : max local = 0.001461213, sum local = 1.4796725e-09, global = 1.1320992e-09, cumulative = 1.8182457e-09
In manipulateMatrix: true bou: 258 int: 0
amgSolver:  Solving for p, Initial residual = 0.00013316082, Final residual = 9.1650045e-08, No Iterations 15
Overset time step continuity errors : max local = 0.0014422059, sum local = 1.4285736e-09, global = 1.1276685e-09, cumulative = 2.9459142e-09
In manipulateMatrix: true bou: 258 int: 0
amgSolver:  Solving for p, Initial residual = 7.6911832e-05, Final residual = 8.6514392e-08, No Iterations 12
Overset time step continuity errors : max local = 0.0011265381, sum local = 1.3483612e-09, global = 5.8908986e-10, cumulative = 3.5350041e-09
ExecutionTime = 10.07 s  ClockTime = 10 s

forces output:
    forces(pressure, viscous)((154.68036 -1.8162672 0) (0 0 0))
    moment(pressure, viscous)((0.09081336 7.734018 1.232491e-08) (0 0 0))

forceCoeffs output:
    Cd = 309.36072
    Cl = -3.6325344
    Cm = 0

Time = 0.018

Courant Number mean: 1.429873 max: 12.763425 velocity magnitude: 280.26628
In manipulateMatrix: true bou: 258 int: 0
smoothSolver:  Solving for Ux, Initial residual = 0.0022092175, Final residual = 9.3749648e-08, No Iterations 31
smoothSolver:  Solving for Uy, Initial residual = 0.0010361901, Final residual = 9.2591791e-08, No Iterations 32
In manipulateMatrix: true bou: 258 int: 0
amgSolver:  Solving for p, Initial residual = 0.00074745311, Final residual = 8.6283159e-08, No Iterations 32
Overset time step continuity errors : max local = 5.9267157e-06, sum local = 1.344894e-09, global = -1.029172e-09, cumulative = 2.505832e-09
In manipulateMatrix: true bou: 258 int: 0
amgSolver:  Solving for p, Initial residual = 0.00037604824, Final residual = 8.6053341e-08, No Iterations 30
Overset time step continuity errors : max local = 0.001315532, sum local = 1.3370078e-09, global = 1.0231979e-09, cumulative = 3.52903e-09
In manipulateMatrix: true bou: 258 int: 0
amgSolver:  Solving for p, Initial residual = 0.00012719227, Final residual = 8.3533078e-08, No Iterations 17
Overset time step continuity errors : max local = 0.0012653635, sum local = 1.3013584e-09, global = 9.850269e-10, cumulative = 4.5140569e-09
In manipulateMatrix: true bou: 258 int: 0
amgSolver:  Solving for p, Initial residual = 7.3217372e-05, Final residual = 6.6329347e-08, No Iterations 12
Overset time step continuity errors : max local = 0.0010240716, sum local = 1.0332355e-09, global = 2.9700109e-10, cumulative = 4.8110579e-09
ExecutionTime = 10.29 s  ClockTime = 10 s

forces output:
    forces(pressure, viscous)((154.71189 -1.9157387 0) (0 0 0))
    moment(pressure, viscous)((0.095786935 7.7355946 1.2415645e-08) (0 0 0))

forceCoeffs output:
    Cd = 309.42378
    Cl = -3.8314774
    Cm = 0

Time = 0.0185

Courant Number mean: 1.4298129 max: 12.763982 velocity magnitude: 280.27665
In manipulateMatrix: true bou: 258 int: 0
smoothSolver:  Solving for Ux, Initial residual = 0.0020547576, Final residual = 8.7321453e-08, No Iterations 31
smoothSolver:  Solving for Uy, Initial residual = 0.00096728578, Final residual = 8.8461667e-08, No Iterations 32
In manipulateMatrix: true bou: 258 int: 0
amgSolver:  Solving for p, Initial residual = 0.00069412945, Final residual = 9.2280684e-08, No Iterations 31
Overset time step continuity errors : max local = 6.341614e-06, sum local = 1.4376139e-09, global = -1.1004096e-09, cumulative = 3.7106483e-09
In manipulateMatrix: true bou: 258 int: 0
amgSolver:  Solving for p, Initial residual = 0.00034326216, Final residual = 9.1941383e-08, No Iterations 29
Overset time step continuity errors : max local = 0.0014006583, sum local = 1.4277666e-09, global = 1.0929251e-09, cumulative = 4.8035734e-09
In manipulateMatrix: true bou: 258 int: 0
amgSolver:  Solving for p, Initial residual = 0.00011717831, Final residual = 9.8830139e-08, No Iterations 15
Overset time step continuity errors : max local = 0.0015228551, sum local = 1.5387881e-09, global = 1.1935397e-09, cumulative = 5.9971131e-09
In manipulateMatrix: true bou: 258 int: 0
amgSolver:  Solving for p, Initial residual = 6.7097943e-05, Final residual = 7.1084985e-08, No Iterations 12
Overset time step continuity errors : max local = 0.001235633, sum local = 1.106699e-09, global = 1.6535981e-10, cumulative = 6.1624729e-09
ExecutionTime = 10.49 s  ClockTime = 10 s

forces output:
    forces(pressure, viscous)((154.73805 -1.9879412 0) (0 0 0))
    moment(pressure, viscous)((0.099397058 7.7369024 1.252208e-08) (0 0 0))

forceCoeffs output:
    Cd = 309.4761
    Cl = -3.9758823
    Cm = 0

Time = 0.019

Courant Number mean: 1.4297592 max: 12.764496 velocity magnitude: 280.28546
In manipulateMatrix: true bou: 258 int: 0
smoothSolver:  Solving for Ux, Initial residual = 0.0019107201, Final residual = 8.1354858e-08, No Iterations 31
smoothSolver:  Solving for Uy, Initial residual = 0.00091447432, Final residual = 8.4746986e-08, No Iterations 32
In manipulateMatrix: true bou: 258 int: 0
amgSolver:  Solving for p, Initial residual = 0.00063655228, Final residual = 9.4844734e-08, No Iterations 30
Overset time step continuity errors : max local = 6.5219692e-06, sum local = 1.4767278e-09, global = -1.1306304e-09, cumulative = 5.0318425e-09
In manipulateMatrix: true bou: 258 int: 0
amgSolver:  Solving for p, Initial residual = 0.00030719099, Final residual = 9.4975535e-08, No Iterations 28
Overset time step continuity errors : max local = 0.0014427306, sum local = 1.4741386e-09, global = 1.128657e-09, cumulative = 6.1604995e-09
In manipulateMatrix: true bou: 258 int: 0
amgSolver:  Solving for p, Initial residual = 0.00010413754, Final residual = 8.484961e-08, No Iterations 16
Overset time step continuity errors : max local = 0.0012403125, sum local = 1.3203176e-09, global = 9.663715e-10, cumulative = 7.126871e-09
In manipulateMatrix: true bou: 258 int: 0
amgSolver:  Solving for p, Initial residual = 5.9350691e-05, Final residual = 8.5994595e-08, No Iterations 12
Overset time step continuity errors : max local = 0.0011806607, sum local = 1.3380457e-09, global = 2.8306026e-11, cumulative = 7.1551771e-09
ExecutionTime = 10.73 s  ClockTime = 10 s

forces output:
    forces(pressure, viscous)((154.75509 -2.0360495 0) (0 0 0))
    moment(pressure, viscous)((0.10180247 7.7377544 1.2640121e-08) (0 0 0))

forceCoeffs output:
    Cd = 309.51018
    Cl = -4.072099
    Cm = 0

Time = 0.0195

Courant Number mean: 1.4297081 max: 12.764954 velocity magnitude: 280.29257
In manipulateMatrix: true bou: 258 int: 0
smoothSolver:  Solving for Ux, Initial residual = 0.0017778413, Final residual = 7.5581613e-08, No Iterations 31
smoothSolver:  Solving for Uy, Initial residual = 0.00087753933, Final residual = 8.1570425e-08, No Iterations 32
In manipulateMatrix: true bou: 258 int: 0
amgSolver:  Solving for p, Initial residual = 0.00058355029, Final residual = 9.3783741e-08, No Iterations 29
Overset time step continuity errors : max local = 6.4550146e-06, sum local = 1.4593432e-09, global = -1.1175639e-09, cumulative = 6.0376131e-09
In manipulateMatrix: true bou: 258 int: 0
amgSolver:  Solving for p, Initial residual = 0.0002682715, Final residual = 9.4739385e-08, No Iterations 27
Overset time step continuity errors : max local = 0.0014358483, sum local = 1.4697357e-09, global = 1.1254049e-09, cumulative = 7.163018e-09
In manipulateMatrix: true bou: 258 int: 0
amgSolver:  Solving for p, Initial residual = 8.963852e-05, Final residual = 8.3914265e-08, No Iterations 15
Overset time step continuity errors : max local = 0.0012019319, sum local = 1.3049531e-09, global = 9.2894036e-10, cumulative = 8.0919584e-09
In manipulateMatrix: true bou: 258 int: 0
amgSolver:  Solving for p, Initial residual = 5.0543072e-05, Final residual = 7.1848097e-08, No Iterations 12
Overset time step continuity errors : max local = 0.00098304082, sum local = 1.117257e-09, global = -9.3590404e-12, cumulative = 8.0825994e-09
ExecutionTime = 10.96 s  ClockTime = 11 s

forces output:
    forces(pressure, viscous)((154.76167 -2.064872 0) (0 0 0))
    moment(pressure, viscous)((0.1032436 7.7380837 1.2764801e-08) (0 0 0))

forceCoeffs output:
    Cd = 309.52335
    Cl = -4.129744
    Cm = 0

Time = 0.02

Courant Number mean: 1.4296563 max: 12.765351 velocity magnitude: 280.29798
In manipulateMatrix: true bou: 258 int: 0
smoothSolver:  Solving for Ux, Initial residual = 0.0016557021, Final residual = 9.6101602e-08, No Iterations 30
smoothSolver:  Solving for Uy, Initial residual = 0.00085153702, Final residual = 7.8870785e-08, No Iterations 32
In manipulateMatrix: true bou: 258 int: 0
amgSolver:  Solving for p, Initial residual = 0.00054002864, Final residual = 8.9420664e-08, No Iterations 28
Overset time step continuity errors : max local = 6.1662838e-06, sum local = 1.3905945e-09, global = -1.0650399e-09, cumulative = 7.0175594e-09
In manipulateMatrix: true bou: 258 int: 0
amgSolver:  Solving for p, Initial residual = 0.00022986126, Final residual = 9.0813098e-08, No Iterations 26
Overset time step continuity errors : max local = 0.0013738161, sum local = 1.4080814e-09, global = 1.0780217e-09, cumulative = 8.0955811e-09
In manipulateMatrix: true bou: 258 int: 0
amgSolver:  Solving for p, Initial residual = 7.4661315e-05, Final residual = 8.7146427e-08, No Iterations 14
Overset time step continuity errors : max local = 0.0011905503, sum local = 1.354348e-09, global = 8.7487974e-10, cumulative = 8.9704608e-09
In manipulateMatrix: true bou: 258 int: 0
amgSolver:  Solving for p, Initial residual = 4.1633498e-05, Final residual = 9.5468698e-08, No Iterations 11
Overset time step continuity errors : max local = 0.0011938703, sum local = 1.4836368e-09, global = -7.1390403e-11, cumulative = 8.8990704e-09
ExecutionTime = 11.14 s  ClockTime = 11 s

forces output:
    forces(pressure, viscous)((154.75874 -2.0808888 0) (0 0 0))
    moment(pressure, viscous)((0.10404444 7.7379372 1.2890574e-08) (0 0 0))

forceCoeffs output:
    Cd = 309.51749
    Cl = -4.1617776
    Cm = 0

Time = 0.0205

Courant Number mean: 1.4296013 max: 12.765683 velocity magnitude: 280.30175
In manipulateMatrix: true bou: 258 int: 0
smoothSolver:  Solving for Ux, Initial residual = 0.0015451933, Final residual = 8.8972813e-08, No Iterations 30
smoothSolver:  Solving for Uy, Initial residual = 0.00082778612, Final residual = 7.661066e-08, No Iterations 32
In manipulateMatrix: true bou: 258 int: 0
amgSolver:  Solving for p, Initial residual = 0.0005016336, Final residual = 8.1855554e-08, No Iterations 27
Overset time step continuity errors : max local = 5.6591181e-06, sum local = 1.272136e-09, global = -9.7432184e-10, cumulative = 7.9247486e-09
In manipulateMatrix: true bou: 258 int: 0
amgSolver:  Solving for p, Initial residual = 0.00019655375, Final residual = 8.3623547e-08, No Iterations 25
Overset time step continuity errors : max local = 0.0012631176, sum local = 1.2958765e-09, global = 9.9177303e-10, cumulative = 8.9165216e-09
In manipulateMatrix: true bou: 258 int: 0
amgSolver:  Solving for p, Initial residual = 6.0747816e-05, Final residual = 9.2159971e-08, No Iterations 13
Overset time step continuity errors : max local = 0.0011812495, sum local = 1.4313152e-09, global = 8.9840628e-10, cumulative = 9.8149279e-09
In manipulateMatrix: true bou: 258 int: 0
amgSolver:  Solving for p, Initial residual = 3.3476447e-05, Final residual = 9.9973757e-08, No Iterations 10
Overset time step continuity errors : max local = 0.0015116531, sum local = 1.5526412e-09, global = -1.4960645e-11, cumulative = 9.7999673e-09
ExecutionTime = 11.32 s  ClockTime = 11 s

forces output:
    forces(pressure, viscous)((154.74864 -2.0908549 0) (0 0 0))
    moment(pressure, viscous)((0.10454274 7.7374319 1.301149e-08) (0 0 0))

forceCoeffs output:
    Cd = 309.49727
    Cl = -4.1817097
    Cm = 0

Time = 0.021

Courant Number mean: 1.4295414 max: 12.765955 velocity magnitude: 280.30411
In manipulateMatrix: true bou: 258 int: 0
smoothSolver:  Solving for Ux, Initial residual = 0.0014462971, Final residual = 8.2357013e-08, No Iterations 30
smoothSolver:  Solving for Uy, Initial residual = 0.00080170526, Final residual = 9.8970158e-08, No Iterations 31
In manipulateMatrix: true bou: 258 int: 0
amgSolver:  Solving for p, Initial residual = 0.00047560626, Final residual = 9.0476716e-08, No Iterations 25
Overset time step continuity errors : max local = 6.2921324e-06, sum local = 1.4051922e-09, global = -1.0752651e-09, cumulative = 8.7247021e-09
In manipulateMatrix: true bou: 258 int: 0
amgSolver:  Solving for p, Initial residual = 0.00017259431, Final residual = 9.1922879e-08, No Iterations 23
Overset time step continuity errors : max local = 0.0013871044, sum local = 1.4236494e-09, global = 1.0878261e-09, cumulative = 9.8125282e-09
In manipulateMatrix: true bou: 258 int: 0
amgSolver:  Solving for p, Initial residual = 4.8926616e-05, Final residual = 9.905114e-08, No Iterations 12
Overset time step continuity errors : max local = 0.0012427308, sum local = 1.5372895e-09, global = 9.6613375e-10, cumulative = 1.0778662e-08
In manipulateMatrix: true bou: 258 int: 0
amgSolver:  Solving for p, Initial residual = 2.642648e-05, Final residual = 8.0118978e-08, No Iterations 10
Overset time step continuity errors : max local = 0.0010182181, sum local = 1.2434614e-09, global = -1.2905267e-10, cumulative = 1.0649609e-08
ExecutionTime = 11.49 s  ClockTime = 11 s

forces output:
    forces(pressure, viscous)((154.73397 -2.1018854 0) (0 0 0))
    moment(pressure, viscous)((0.10509427 7.7366987 1.3121986e-08) (0 0 0))

forceCoeffs output:
    Cd = 309.46795
    Cl = -4.2037708
    Cm = 0

Time = 0.0215

Courant Number mean: 1.4294753 max: 12.766174 velocity magnitude: 280.30535
In manipulateMatrix: true bou: 258 int: 0
smoothSolver:  Solving for Ux, Initial residual = 0.0013580803, Final residual = 7.6269096e-08, No Iterations 30
smoothSolver:  Solving for Uy, Initial residual = 0.0007721421, Final residual = 9.6498442e-08, No Iterations 31
In manipulateMatrix: true bou: 258 int: 0
amgSolver:  Solving for p, Initial residual = 0.00046496313, Final residual = 9.9255192e-08, No Iterations 23
Overset time step continuity errors : max local = 6.9669353e-06, sum local = 1.5404952e-09, global = -1.1777818e-09, cumulative = 9.4718275e-09
In manipulateMatrix: true bou: 258 int: 0
amgSolver:  Solving for p, Initial residual = 0.00016112495, Final residual = 9.8197072e-08, No Iterations 21
Overset time step continuity errors : max local = 0.001478908, sum local = 1.5198684e-09, global = 1.158724e-09, cumulative = 1.0630552e-08
In manipulateMatrix: true bou: 258 int: 0
amgSolver:  Solving for p, Initial residual = 4.0101128e-05, Final residual = 8.3792671e-08, No Iterations 12
Overset time step continuity errors : max local = 0.0011044898, sum local = 1.2995733e-09, global = 9.0161377e-10, cumulative = 1.1532165e-08
In manipulateMatrix: true bou: 258 int: 0
amgSolver:  Solving for p, Initial residual = 2.0989278e-05, Final residual = 8.2574366e-08, No Iterations 9
Overset time step continuity errors : max local = 0.00093913408, sum local = 1.2807059e-09, global = -4.2036586e-10, cumulative = 1.1111799e-08
ExecutionTime = 11.64 s  ClockTime = 11 s

forces output:
    forces(pressure, viscous)((154.71753 -2.120601 0) (0 0 0))
    moment(pressure, viscous)((0.10603005 7.7358763 1.3217234e-08) (0 0 0))

forceCoeffs output:
    Cd = 309.43505
    Cl = -4.241202
    Cm = 0

Time = 0.022

Courant Number mean: 1.4294027 max: 12.766351 velocity magnitude: 280.30583
In manipulateMatrix: true bou: 258 int: 0
smoothSolver:  Solving for Ux, Initial residual = 0.0012797227, Final residual = 9.7560116e-08, No Iterations 29
smoothSolver:  Solving for Uy, Initial residual = 0.00074081478, Final residual = 9.3978776e-08, No Iterations 31
In manipulateMatrix: true bou: 258 int: 0
amgSolver:  Solving for p, Initial residual = 0.00046729751, Final residual = 9.0892443e-08, No Iterations 22
[...]

forceCoeffs output:
    Cd = 308.67705
    Cl = -7.1216606
    Cm = 0

Time = 0.495

Courant Number mean: 1.4259647 max: 12.770557 velocity magnitude: 280.34221
In manipulateMatrix: true bou: 258 int: 0
smoothSolver:  Solving for Ux, Initial residual = 3.2086455e-08, Final residual = 2.0790302e-08, No Iterations 1
smoothSolver:  Solving for Uy, Initial residual = 4.0133352e-08, Final residual = 2.5715928e-08, No Iterations 1
In manipulateMatrix: true bou: 258 int: 0
amgSolver:  Solving for p, Initial residual = 2.0729468e-07, Final residual = 2.5405441e-08, No Iterations 1
Overset time step continuity errors : max local = 0.0033315385, sum local = 3.8680251e-10, global = 1.9206348e-11, cumulative = -1.8435115e-09
In manipulateMatrix: true bou: 258 int: 0
amgSolver:  Solving for p, Initial residual = 1.2241532e-07, Final residual = 1.4016983e-08, No Iterations 1
Overset time step continuity errors : max local = 0.00010006106, sum local = 2.1341113e-10, global = 1.932675e-11, cumulative = -1.8241848e-09
In manipulateMatrix: true bou: 258 int: 0
amgSolver:  Solving for p, Initial residual = 5.8070308e-08, Final residual = 5.8070308e-08, No Iterations 0
Overset time step continuity errors : max local = 0.011451819, sum local = 8.8413108e-10, global = 1.9439632e-11, cumulative = -1.8047451e-09
In manipulateMatrix: true bou: 258 int: 0
amgSolver:  Solving for p, Initial residual = 8.0810656e-08, Final residual = 8.0810656e-08, No Iterations 0
Overset time step continuity errors : max local = 0.012412671, sum local = 1.230357e-09, global = 1.9573457e-11, cumulative = -1.7851717e-09
ExecutionTime = 68.32 s  ClockTime = 68 s

forces output:
    forces(pressure, viscous)((154.3385 -3.5608025 0) (0 0 0))
    moment(pressure, viscous)((0.17804013 7.7169249 1.3898078e-08) (0 0 0))

forceCoeffs output:
    Cd = 308.677
    Cl = -7.1216051
    Cm = 0

Time = 0.4955

Courant Number mean: 1.4259647 max: 12.770557 velocity magnitude: 280.34214
In manipulateMatrix: true bou: 258 int: 0
smoothSolver:  Solving for Ux, Initial residual = 3.2585277e-08, Final residual = 2.1012934e-08, No Iterations 1
smoothSolver:  Solving for Uy, Initial residual = 3.8582945e-08, Final residual = 2.5565911e-08, No Iterations 1
In manipulateMatrix: true bou: 258 int: 0
amgSolver:  Solving for p, Initial residual = 2.3330174e-07, Final residual = 2.7878116e-08, No Iterations 1
Overset time step continuity errors : max local = 0.00018018006, sum local = 4.2444944e-10, global = 2.1479944e-11, cumulative = -1.7636917e-09
In manipulateMatrix: true bou: 258 int: 0
amgSolver:  Solving for p, Initial residual = 1.2390991e-07, Final residual = 1.579375e-08, No Iterations 1
Overset time step continuity errors : max local = 0.000260297, sum local = 2.4046274e-10, global = 1.6460339e-11, cumulative = -1.7472314e-09
In manipulateMatrix: true bou: 258 int: 0
amgSolver:  Solving for p, Initial residual = 6.4235971e-08, Final residual = 6.4235971e-08, No Iterations 0
Overset time step continuity errors : max local = 0.010200345, sum local = 9.7800453e-10, global = 1.2739504e-11, cumulative = -1.7344919e-09
In manipulateMatrix: true bou: 258 int: 0
amgSolver:  Solving for p, Initial residual = 8.9794153e-08, Final residual = 8.9794153e-08, No Iterations 0
Overset time step continuity errors : max local = 0.041117925, sum local = 1.3671326e-09, global = 9.9685413e-12, cumulative = -1.7245233e-09
ExecutionTime = 68.39 s  ClockTime = 68 s

forces output:
    forces(pressure, viscous)((154.33846 -3.5608227 0) (0 0 0))
    moment(pressure, viscous)((0.17804114 7.716923 1.3898462e-08) (0 0 0))

forceCoeffs output:
    Cd = 308.67692
    Cl = -7.1216455
    Cm = 0

Time = 0.496

Courant Number mean: 1.4259647 max: 12.770557 velocity magnitude: 280.34221
In manipulateMatrix: true bou: 258 int: 0
smoothSolver:  Solving for Ux, Initial residual = 3.6218954e-08, Final residual = 2.3499336e-08, No Iterations 1
smoothSolver:  Solving for Uy, Initial residual = 4.1856812e-08, Final residual = 2.7824398e-08, No Iterations 1
In manipulateMatrix: true bou: 258 int: 0
amgSolver:  Solving for p, Initial residual = 2.2555852e-07, Final residual = 2.9220314e-08, No Iterations 1
Overset time step continuity errors : max local = 0.00046165134, sum local = 4.4488467e-10, global = -3.5637234e-12, cumulative = -1.7280871e-09
In manipulateMatrix: true bou: 258 int: 0
amgSolver:  Solving for p, Initial residual = 1.2720206e-07, Final residual = 1.3280217e-08, No Iterations 1
Overset time step continuity errors : max local = 0.00085047629, sum local = 2.0219376e-10, global = -7.8574011e-12, cumulative = -1.7359445e-09
In manipulateMatrix: true bou: 258 int: 0
amgSolver:  Solving for p, Initial residual = 6.7374318e-08, Final residual = 6.7374318e-08, No Iterations 0
Overset time step continuity errors : max local = 0.039749811, sum local = 1.0257865e-09, global = -1.1053446e-11, cumulative = -1.7469979e-09
In manipulateMatrix: true bou: 258 int: 0
amgSolver:  Solving for p, Initial residual = 9.6200628e-08, Final residual = 9.6200628e-08, No Iterations 0
Overset time step continuity errors : max local = 0.026187389, sum local = 1.4646725e-09, global = -1.3425044e-11, cumulative = -1.760423e-09
ExecutionTime = 68.45 s  ClockTime = 68 s

forces output:
    forces(pressure, viscous)((154.3385 -3.5607872 0) (0 0 0))
    moment(pressure, viscous)((0.17803936 7.7169251 1.3898155e-08) (0 0 0))

forceCoeffs output:
    Cd = 308.677
    Cl = -7.1215745
    Cm = 0

Time = 0.4965

Courant Number mean: 1.4259647 max: 12.770557 velocity magnitude: 280.34209
In manipulateMatrix: true bou: 258 int: 0
smoothSolver:  Solving for Ux, Initial residual = 3.8476618e-08, Final residual = 2.5036158e-08, No Iterations 1
smoothSolver:  Solving for Uy, Initial residual = 4.2528078e-08, Final residual = 2.8621815e-08, No Iterations 1
In manipulateMatrix: true bou: 258 int: 0
amgSolver:  Solving for p, Initial residual = 2.6265665e-07, Final residual = 3.063913e-08, No Iterations 1
Overset time step continuity errors : max local = 0.001766413, sum local = 4.6648642e-10, global = -2.1113017e-11, cumulative = -1.781536e-09
In manipulateMatrix: true bou: 258 int: 0
amgSolver:  Solving for p, Initial residual = 1.402122e-07, Final residual = 1.5639402e-08, No Iterations 1
Overset time step continuity errors : max local = 0.00017720733, sum local = 2.3811276e-10, global = -2.1561104e-11, cumulative = -1.8030971e-09
In manipulateMatrix: true bou: 258 int: 0
amgSolver:  Solving for p, Initial residual = 7.7933946e-08, Final residual = 7.7933946e-08, No Iterations 0
Overset time step continuity errors : max local = 0.021683118, sum local = 1.1865586e-09, global = -2.186546e-11, cumulative = -1.8249625e-09
In manipulateMatrix: true bou: 258 int: 0
amgSolver:  Solving for p, Initial residual = 1.1498141e-07, Final residual = 1.4981713e-08, No Iterations 1
Overset time step continuity errors : max local = 0.00020494102, sum local = 2.2809931e-10, global = -2.2548114e-11, cumulative = -1.8475107e-09
ExecutionTime = 68.51 s  ClockTime = 69 s

forces output:
    forces(pressure, viscous)((154.33846 -3.5608027 0) (0 0 0))
    moment(pressure, viscous)((0.17804013 7.7169232 1.3897763e-08) (0 0 0))

forceCoeffs output:
    Cd = 308.67693
    Cl = -7.1216054
    Cm = 0

Time = 0.497

Courant Number mean: 1.4259647 max: 12.770557 velocity magnitude: 280.34224
In manipulateMatrix: true bou: 258 int: 0
smoothSolver:  Solving for Ux, Initial residual = 2.9657302e-08, Final residual = 1.8996157e-08, No Iterations 1
smoothSolver:  Solving for Uy, Initial residual = 3.5548536e-08, Final residual = 2.3349761e-08, No Iterations 1
In manipulateMatrix: true bou: 258 int: 0
amgSolver:  Solving for p, Initial residual = 1.9834917e-07, Final residual = 1.8321115e-08, No Iterations 1
Overset time step continuity errors : max local = 0.0024447223, sum local = 2.7894231e-10, global = -3.0186302e-11, cumulative = -1.877697e-09
In manipulateMatrix: true bou: 258 int: 0
amgSolver:  Solving for p, Initial residual = 8.1676675e-08, Final residual = 8.1676675e-08, No Iterations 0
Overset time step continuity errors : max local = 0.027617801, sum local = 1.2435422e-09, global = -3.3576689e-11, cumulative = -1.9112736e-09
In manipulateMatrix: true bou: 258 int: 0
amgSolver:  Solving for p, Initial residual = 1.1800928e-07, Final residual = 1.242446e-08, No Iterations 1
Overset time step continuity errors : max local = 0.00021928237, sum local = 1.8916466e-10, global = -2.1156598e-11, cumulative = -1.9324302e-09
In manipulateMatrix: true bou: 258 int: 0
amgSolver:  Solving for p, Initial residual = 5.9143688e-08, Final residual = 5.9143688e-08, No Iterations 0
Overset time step continuity errors : max local = 0.014470309, sum local = 9.0047321e-10, global = -1.1793257e-11, cumulative = -1.9442235e-09
ExecutionTime = 68.56 s  ClockTime = 69 s

forces output:
    forces(pressure, viscous)((154.3385 -3.5607875 0) (0 0 0))
    moment(pressure, viscous)((0.17803937 7.7169248 1.3897902e-08) (0 0 0))

forceCoeffs output:
    Cd = 308.67699
    Cl = -7.1215749
    Cm = 0

Time = 0.4975

Courant Number mean: 1.4259647 max: 12.770557 velocity magnitude: 280.34217
In manipulateMatrix: true bou: 258 int: 0
smoothSolver:  Solving for Ux, Initial residual = 2.9386054e-08, Final residual = 1.9385413e-08, No Iterations 1
smoothSolver:  Solving for Uy, Initial residual = 3.4803522e-08, Final residual = 2.3513478e-08, No Iterations 1
In manipulateMatrix: true bou: 258 int: 0
amgSolver:  Solving for p, Initial residual = 1.9756661e-07, Final residual = 1.9933161e-08, No Iterations 1
Overset time step continuity errors : max local = 0.0025961747, sum local = 3.0348592e-10, global = 4.0239135e-12, cumulative = -1.9401996e-09
In manipulateMatrix: true bou: 258 int: 0
amgSolver:  Solving for p, Initial residual = 1.0639847e-07, Final residual = 1.0161748e-08, No Iterations 1
Overset time step continuity errors : max local = 0.00068835708, sum local = 1.5471442e-10, global = 7.6463461e-12, cumulative = -1.9325532e-09
In manipulateMatrix: true bou: 258 int: 0
amgSolver:  Solving for p, Initial residual = 4.2500815e-08, Final residual = 4.2500815e-08, No Iterations 0
Overset time step continuity errors : max local = 0.0093330858, sum local = 6.470825e-10, global = 1.043706e-11, cumulative = -1.9221162e-09
In manipulateMatrix: true bou: 258 int: 0
amgSolver:  Solving for p, Initial residual = 5.9375171e-08, Final residual = 5.9375171e-08, No Iterations 0
Overset time step continuity errors : max local = 0.0090504818, sum local = 9.0399758e-10, global = 1.2560661e-11, cumulative = -1.9095555e-09
ExecutionTime = 68.63 s  ClockTime = 69 s

forces output:
    forces(pressure, viscous)((154.33848 -3.5607738 0) (0 0 0))
    moment(pressure, viscous)((0.17803869 7.7169241 1.3898246e-08) (0 0 0))

forceCoeffs output:
    Cd = 308.67697
    Cl = -7.1215475
    Cm = 0

Time = 0.498

Courant Number mean: 1.4259647 max: 12.770557 velocity magnitude: 280.34218
In manipulateMatrix: true bou: 258 int: 0
smoothSolver:  Solving for Ux, Initial residual = 2.8683138e-08, Final residual = 1.9461792e-08, No Iterations 1
smoothSolver:  Solving for Uy, Initial residual = 3.3590535e-08, Final residual = 2.2916871e-08, No Iterations 1
In manipulateMatrix: true bou: 258 int: 0
amgSolver:  Solving for p, Initial residual = 1.4931894e-07, Final residual = 1.8421282e-08, No Iterations 1
Overset time step continuity errors : max local = 0.00050760458, sum local = 2.8046731e-10, global = 2.5332862e-11, cumulative = -1.8842227e-09
In manipulateMatrix: true bou: 258 int: 0
amgSolver:  Solving for p, Initial residual = 7.9080399e-08, Final residual = 7.9080399e-08, No Iterations 0
Overset time step continuity errors : max local = 0.049190971, sum local = 1.2040132e-09, global = 2.9552671e-11, cumulative = -1.85467e-09
In manipulateMatrix: true bou: 258 int: 0
amgSolver:  Solving for p, Initial residual = 1.1468882e-07, Final residual = 1.3960214e-08, No Iterations 1
Overset time step continuity errors : max local = 0.0018460206, sum local = 2.1254675e-10, global = 2.8745845e-11, cumulative = -1.8259241e-09
In manipulateMatrix: true bou: 258 int: 0
amgSolver:  Solving for p, Initial residual = 5.7290112e-08, Final residual = 5.7290112e-08, No Iterations 0
Overset time step continuity errors : max local = 0.0076154121, sum local = 8.7225225e-10, global = 2.8186057e-11, cumulative = -1.7977381e-09
ExecutionTime = 68.69 s  ClockTime = 69 s

forces output:
    forces(pressure, viscous)((154.33846 -3.5607804 0) (0 0 0))
    moment(pressure, viscous)((0.17803902 7.7169229 1.3897665e-08) (0 0 0))

forceCoeffs output:
    Cd = 308.67691
    Cl = -7.1215609
    Cm = 0

Time = 0.4985

Courant Number mean: 1.4259647 max: 12.770557 velocity magnitude: 280.34212
In manipulateMatrix: true bou: 258 int: 0
smoothSolver:  Solving for Ux, Initial residual = 2.8256361e-08, Final residual = 1.8409889e-08, No Iterations 1
smoothSolver:  Solving for Uy, Initial residual = 3.5767434e-08, Final residual = 2.3998699e-08, No Iterations 1
In manipulateMatrix: true bou: 258 int: 0
amgSolver:  Solving for p, Initial residual = 1.7955937e-07, Final residual = 2.0644075e-08, No Iterations 1
Overset time step continuity errors : max local = 0.0016399169, sum local = 3.1430977e-10, global = 1.4155805e-11, cumulative = -1.7835823e-09
In manipulateMatrix: true bou: 258 int: 0
amgSolver:  Solving for p, Initial residual = 1.0283963e-07, Final residual = 1.0041995e-08, No Iterations 1
Overset time step continuity errors : max local = 0.00092118843, sum local = 1.5289122e-10, global = -4.3673712e-12, cumulative = -1.7879497e-09
In manipulateMatrix: true bou: 258 int: 0
amgSolver:  Solving for p, Initial residual = 4.8007856e-08, Final residual = 4.8007856e-08, No Iterations 0
Overset time step continuity errors : max local = 0.0083971259, sum local = 7.3092851e-10, global = -1.824674e-11, cumulative = -1.8061964e-09
In manipulateMatrix: true bou: 258 int: 0
amgSolver:  Solving for p, Initial residual = 6.5072228e-08, Final residual = 6.5072228e-08, No Iterations 0
Overset time step continuity errors : max local = 0.022020567, sum local = 9.9073674e-10, global = -2.8672483e-11, cumulative = -1.8348689e-09
ExecutionTime = 68.75 s  ClockTime = 69 s

forces output:
    forces(pressure, viscous)((154.33851 -3.5607605 0) (0 0 0))
    moment(pressure, viscous)((0.17803802 7.7169257 1.3898094e-08) (0 0 0))

forceCoeffs output:
    Cd = 308.67703
    Cl = -7.121521
    Cm = 0

Time = 0.499

Courant Number mean: 1.4259647 max: 12.770557 velocity magnitude: 280.34218
In manipulateMatrix: true bou: 258 int: 0
smoothSolver:  Solving for Ux, Initial residual = 3.410712e-08, Final residual = 2.3364304e-08, No Iterations 1
smoothSolver:  Solving for Uy, Initial residual = 3.5986436e-08, Final residual = 2.4141508e-08, No Iterations 1
In manipulateMatrix: true bou: 258 int: 0
amgSolver:  Solving for p, Initial residual = 1.7487334e-07, Final residual = 1.9857317e-08, No Iterations 1
Overset time step continuity errors : max local = 0.0019270025, sum local = 3.0233133e-10, global = -3.8412108e-11, cumulative = -1.873281e-09
In manipulateMatrix: true bou: 258 int: 0
amgSolver:  Solving for p, Initial residual = 1.0114856e-07, Final residual = 1.0429341e-08, No Iterations 1
Overset time step continuity errors : max local = 4.5736105e-05, sum local = 1.587886e-10, global = -2.2140571e-11, cumulative = -1.8954216e-09
In manipulateMatrix: true bou: 258 int: 0
amgSolver:  Solving for p, Initial residual = 5.3440908e-08, Final residual = 5.3440908e-08, No Iterations 0
Overset time step continuity errors : max local = 0.012311041, sum local = 8.136474e-10, global = -9.8570067e-12, cumulative = -1.9052786e-09
In manipulateMatrix: true bou: 258 int: 0
amgSolver:  Solving for p, Initial residual = 7.3483564e-08, Final residual = 7.3483564e-08, No Iterations 0
Overset time step continuity errors : max local = 0.012283481, sum local = 1.1188004e-09, global = -5.6469675e-13, cumulative = -1.9058433e-09
ExecutionTime = 68.82 s  ClockTime = 69 s

forces output:
    forces(pressure, viscous)((154.33846 -3.5607588 0) (0 0 0))
    moment(pressure, viscous)((0.17803794 7.7169229 1.3898081e-08) (0 0 0))

forceCoeffs output:
    Cd = 308.67692
    Cl = -7.1215176
    Cm = 0

Time = 0.4995

Courant Number mean: 1.4259647 max: 12.770557 velocity magnitude: 280.34208
In manipulateMatrix: true bou: 258 int: 0
smoothSolver:  Solving for Ux, Initial residual = 3.4464284e-08, Final residual = 2.3060227e-08, No Iterations 1
smoothSolver:  Solving for Uy, Initial residual = 3.6750677e-08, Final residual = 2.4835178e-08, No Iterations 1
In manipulateMatrix: true bou: 258 int: 0
amgSolver:  Solving for p, Initial residual = 1.7976993e-07, Final residual = 3.3080658e-08, No Iterations 1
Overset time step continuity errors : max local = 0.00047199599, sum local = 5.0365896e-10, global = 1.433292e-11, cumulative = -1.8915103e-09
In manipulateMatrix: true bou: 258 int: 0
amgSolver:  Solving for p, Initial residual = 1.0935954e-07, Final residual = 1.2609785e-08, No Iterations 1
Overset time step continuity errors : max local = 0.001490727, sum local = 1.9198625e-10, global = 9.272101e-12, cumulative = -1.8822382e-09
In manipulateMatrix: true bou: 258 int: 0
amgSolver:  Solving for p, Initial residual = 6.1614197e-08, Final residual = 6.1614197e-08, No Iterations 0
Overset time step continuity errors : max local = 0.012785479, sum local = 9.3808735e-10, global = 5.5547338e-12, cumulative = -1.8766835e-09
In manipulateMatrix: true bou: 258 int: 0
amgSolver:  Solving for p, Initial residual = 8.8358387e-08, Final residual = 8.8358387e-08, No Iterations 0
Overset time step continuity errors : max local = 0.023430171, sum local = 1.3452725e-09, global = 2.7956985e-12, cumulative = -1.8738878e-09
ExecutionTime = 68.87 s  ClockTime = 69 s

forces output:
    forces(pressure, viscous)((154.33853 -3.5607754 0) (0 0 0))
    moment(pressure, viscous)((0.17803877 7.7169263 1.3898394e-08) (0 0 0))

forceCoeffs output:
    Cd = 308.67705
    Cl = -7.1215508
    Cm = 0

Time = 0.5

Courant Number mean: 1.4259647 max: 12.770557 velocity magnitude: 280.34221
In manipulateMatrix: true bou: 258 int: 0
smoothSolver:  Solving for Ux, Initial residual = 3.7045707e-08, Final residual = 2.4696234e-08, No Iterations 1
smoothSolver:  Solving for Uy, Initial residual = 4.5951632e-08, Final residual = 3.1227737e-08, No Iterations 1
In manipulateMatrix: true bou: 258 int: 0
amgSolver:  Solving for p, Initial residual = 2.1312675e-07, Final residual = 4.0452816e-08, No Iterations 1
Overset time step continuity errors : max local = 0.0014131182, sum local = 6.1590148e-10, global = 1.5039719e-12, cumulative = -1.8723838e-09
In manipulateMatrix: true bou: 258 int: 0
amgSolver:  Solving for p, Initial residual = 1.2525035e-07, Final residual = 1.6150331e-08, No Iterations 1
Overset time step continuity errors : max local = 0.00013236191, sum local = 2.4589173e-10, global = 8.4277826e-13, cumulative = -1.8715411e-09
In manipulateMatrix: true bou: 258 int: 0
amgSolver:  Solving for p, Initial residual = 7.0190919e-08, Final residual = 7.0190919e-08, No Iterations 0
Overset time step continuity errors : max local = 0.050195942, sum local = 1.0686696e-09, global = 3.7539768e-13, cumulative = -1.8711657e-09
In manipulateMatrix: true bou: 258 int: 0
amgSolver:  Solving for p, Initial residual = 1.0413705e-07, Final residual = 1.7321858e-08, No Iterations 1
Overset time step continuity errors : max local = 0.00038761852, sum local = 2.6372844e-10, global = -1.9551595e-12, cumulative = -1.8731208e-09
ExecutionTime = 69.02 s  ClockTime = 69 s

forces output:
    forces(pressure, viscous)((154.33851 -3.560744 0) (0 0 0))
    moment(pressure, viscous)((0.1780372 7.7169257 1.3898473e-08) (0 0 0))

forceCoeffs output:
    Cd = 308.67703
    Cl = -7.1214881
    Cm = 0

pressureTools pressureTools1 output:
    writing field static(p)_coeff

End

